
---------- Begin Simulation Statistics ----------
final_tick                               109525337000                       # Number of ticks from beginning of simulation (restored from checkpoints and never reset)
host_inst_rate                                 301472                       # Simulator instruction rate (inst/s)
host_mem_usage                                 713924                       # Number of bytes of host memory used
host_op_rate                                   329024                       # Simulator op (including micro ops) rate (op/s)
host_seconds                                   331.71                       # Real time elapsed on the host
host_tick_rate                              330187691                       # Simulator tick rate (ticks/s)
sim_freq                                 1000000000000                       # Frequency of simulated ticks
sim_insts                                   100000001                       # Number of instructions simulated
sim_ops                                     109139393                       # Number of ops (including micro ops) simulated
sim_seconds                                  0.109525                       # Number of seconds simulated
sim_ticks                                109525337000                       # Number of ticks simulated
system.cpu.committedInsts                   100000001                       # Number of instructions committed
system.cpu.committedOps                     109139393                       # Number of ops (including micro ops) committed
system.cpu.cpi                               1.095253                       # CPI: cycles per instruction
system.cpu.discardedOps                        431154                       # Number of ops (including micro ops) which were discarded before commit
system.cpu.idleCycles                         2863331                       # Total number of cycles that the object has spent stopped
system.cpu.ipc                               0.913031                       # IPC: instructions per cycle
system.cpu.numCycles                        109525337                       # number of cpu cycles simulated
system.cpu.numFetchSuspends                         0                       # Number of times Execute suspended instruction fetching
system.cpu.numWorkItemsCompleted                    0                       # number of work items this cpu completed
system.cpu.numWorkItemsStarted                      0                       # number of work items this cpu started
system.cpu.op_class_0::No_OpClass                   0      0.00%      0.00% # Class of committed instruction
system.cpu.op_class_0::IntAlu                72222733     66.17%     66.17% # Class of committed instruction
system.cpu.op_class_0::IntMult                 547028      0.50%     66.68% # Class of committed instruction
system.cpu.op_class_0::IntDiv                       0      0.00%     66.68% # Class of committed instruction
system.cpu.op_class_0::FloatAdd                     0      0.00%     66.68% # Class of committed instruction
system.cpu.op_class_0::FloatCmp                     0      0.00%     66.68% # Class of committed instruction
system.cpu.op_class_0::FloatCvt                     0      0.00%     66.68% # Class of committed instruction
system.cpu.op_class_0::FloatMult                    0      0.00%     66.68% # Class of committed instruction
system.cpu.op_class_0::FloatMultAcc                 0      0.00%     66.68% # Class of committed instruction
system.cpu.op_class_0::FloatDiv                     0      0.00%     66.68% # Class of committed instruction
system.cpu.op_class_0::FloatMisc                    0      0.00%     66.68% # Class of committed instruction
system.cpu.op_class_0::FloatSqrt                    0      0.00%     66.68% # Class of committed instruction
system.cpu.op_class_0::SimdAdd                 231656      0.21%     66.89% # Class of committed instruction
system.cpu.op_class_0::SimdAddAcc                   0      0.00%     66.89% # Class of committed instruction
system.cpu.op_class_0::SimdAlu                 148482      0.14%     67.02% # Class of committed instruction
system.cpu.op_class_0::SimdCmp                 115828      0.11%     67.13% # Class of committed instruction
system.cpu.op_class_0::SimdCvt                      0      0.00%     67.13% # Class of committed instruction
system.cpu.op_class_0::SimdMisc                 42808      0.04%     67.17% # Class of committed instruction
system.cpu.op_class_0::SimdMult                     0      0.00%     67.17% # Class of committed instruction
system.cpu.op_class_0::SimdMultAcc                  0      0.00%     67.17% # Class of committed instruction
system.cpu.op_class_0::SimdShift                    0      0.00%     67.17% # Class of committed instruction
system.cpu.op_class_0::SimdShiftAcc                 0      0.00%     67.17% # Class of committed instruction
system.cpu.op_class_0::SimdDiv                      0      0.00%     67.17% # Class of committed instruction
system.cpu.op_class_0::SimdSqrt                     0      0.00%     67.17% # Class of committed instruction
system.cpu.op_class_0::SimdFloatAdd                 0      0.00%     67.17% # Class of committed instruction
system.cpu.op_class_0::SimdFloatAlu                 0      0.00%     67.17% # Class of committed instruction
system.cpu.op_class_0::SimdFloatCmp                 0      0.00%     67.17% # Class of committed instruction
system.cpu.op_class_0::SimdFloatCvt                 0      0.00%     67.17% # Class of committed instruction
system.cpu.op_class_0::SimdFloatDiv                 0      0.00%     67.17% # Class of committed instruction
system.cpu.op_class_0::SimdFloatMisc           159857      0.15%     67.32% # Class of committed instruction
system.cpu.op_class_0::SimdFloatMult                0      0.00%     67.32% # Class of committed instruction
system.cpu.op_class_0::SimdFloatMultAcc             0      0.00%     67.32% # Class of committed instruction
system.cpu.op_class_0::SimdFloatSqrt                0      0.00%     67.32% # Class of committed instruction
system.cpu.op_class_0::SimdReduceAdd                0      0.00%     67.32% # Class of committed instruction
system.cpu.op_class_0::SimdReduceAlu                0      0.00%     67.32% # Class of committed instruction
system.cpu.op_class_0::SimdReduceCmp                0      0.00%     67.32% # Class of committed instruction
system.cpu.op_class_0::SimdFloatReduceAdd            0      0.00%     67.32% # Class of committed instruction
system.cpu.op_class_0::SimdFloatReduceCmp            0      0.00%     67.32% # Class of committed instruction
system.cpu.op_class_0::SimdAes                      0      0.00%     67.32% # Class of committed instruction
system.cpu.op_class_0::SimdAesMix                   0      0.00%     67.32% # Class of committed instruction
system.cpu.op_class_0::SimdSha1Hash                 0      0.00%     67.32% # Class of committed instruction
system.cpu.op_class_0::SimdSha1Hash2                0      0.00%     67.32% # Class of committed instruction
system.cpu.op_class_0::SimdSha256Hash               0      0.00%     67.32% # Class of committed instruction
system.cpu.op_class_0::SimdSha256Hash2              0      0.00%     67.32% # Class of committed instruction
system.cpu.op_class_0::SimdShaSigma2                0      0.00%     67.32% # Class of committed instruction
system.cpu.op_class_0::SimdShaSigma3                0      0.00%     67.32% # Class of committed instruction
system.cpu.op_class_0::SimdPredAlu                  0      0.00%     67.32% # Class of committed instruction
system.cpu.op_class_0::MemRead               20932682     19.18%     86.50% # Class of committed instruction
system.cpu.op_class_0::MemWrite              14738319     13.50%    100.00% # Class of committed instruction
system.cpu.op_class_0::FloatMemRead                 0      0.00%    100.00% # Class of committed instruction
system.cpu.op_class_0::FloatMemWrite                0      0.00%    100.00% # Class of committed instruction
system.cpu.op_class_0::IprAccess                    0      0.00%    100.00% # Class of committed instruction
system.cpu.op_class_0::InstPrefetch                 0      0.00%    100.00% # Class of committed instruction
system.cpu.op_class_0::total                109139393                       # Class of committed instruction
system.cpu.tickCycles                       106662006                       # Number of cycles that the object actually ticked
system.cpu.workload.numSyscalls                    85                       # Number of system calls
system.membus.snoop_filter.hit_multi_requests            0                       # Number of requests hitting in the snoop filter with multiple (>1) holders of the requested data.
system.membus.snoop_filter.hit_multi_snoops            0                       # Number of snoops hitting in the snoop filter with multiple (>1) holders of the requested data.
system.membus.snoop_filter.hit_single_requests        25108                       # Number of requests hitting in the snoop filter with a single holder of the requested data.
system.membus.snoop_filter.hit_single_snoops            0                       # Number of snoops hitting in the snoop filter with a single holder of the requested data.
system.membus.snoop_filter.tot_requests         67080                       # Total number of requests made to the snoop filter.
system.membus.snoop_filter.tot_snoops               0                       # Total number of snoops made to the snoop filter.
system.tol2bus.snoop_filter.hit_multi_requests          101                       # Number of requests hitting in the snoop filter with multiple (>1) holders of the requested data.
system.tol2bus.snoop_filter.hit_multi_snoops            0                       # Number of snoops hitting in the snoop filter with multiple (>1) holders of the requested data.
system.tol2bus.snoop_filter.hit_single_requests        54737                       # Number of requests hitting in the snoop filter with a single holder of the requested data.
system.tol2bus.snoop_filter.hit_single_snoops          739                       # Number of snoops hitting in the snoop filter with a single holder of the requested data.
system.tol2bus.snoop_filter.tot_requests       112002                       # Total number of requests made to the snoop filter.
system.tol2bus.snoop_filter.tot_snoops            739                       # Total number of snoops made to the snoop filter.
system.clk_domain.clock                          1000                       # Clock period in ticks
system.cpu.branchPred.lookups                19659421                       # Number of BP lookups
system.cpu.branchPred.condPredicted          15819003                       # Number of conditional branches predicted
system.cpu.branchPred.condIncorrect             88867                       # Number of conditional branches incorrect
system.cpu.branchPred.BTBLookups              8076145                       # Number of BTB lookups
system.cpu.branchPred.BTBHits                 8062887                       # Number of BTB hits
system.cpu.branchPred.BTBHitPct             99.835838                       # BTB Hit Percentage
system.cpu.branchPred.RASUsed                 1050587                       # Number of times the RAS was used to get a target.
system.cpu.branchPred.RASIncorrect                467                       # Number of incorrect RAS predictions.
system.cpu.branchPred.indirectLookups          422681                       # Number of indirect predictor lookups.
system.cpu.branchPred.indirectHits             287881                       # Number of indirect target hits.
system.cpu.branchPred.indirectMisses           134800                       # Number of indirect misses.
system.cpu.branchPred.indirectMispredicted          993                       # Number of mispredicted indirect branches.
system.cpu.dcache.demand_hits::.cpu.data     35093214                       # number of demand (read+write) hits
system.cpu.dcache.demand_hits::total         35093214                       # number of demand (read+write) hits
system.cpu.dcache.overall_hits::.cpu.data     35096291                       # number of overall hits
system.cpu.dcache.overall_hits::total        35096291                       # number of overall hits
system.cpu.dcache.demand_misses::.cpu.data        77264                       # number of demand (read+write) misses
system.cpu.dcache.demand_misses::total          77264                       # number of demand (read+write) misses
system.cpu.dcache.overall_misses::.cpu.data        77316                       # number of overall misses
system.cpu.dcache.overall_misses::total         77316                       # number of overall misses
system.cpu.dcache.demand_miss_latency::.cpu.data   6415422000                       # number of demand (read+write) miss cycles
system.cpu.dcache.demand_miss_latency::total   6415422000                       # number of demand (read+write) miss cycles
system.cpu.dcache.overall_miss_latency::.cpu.data   6415422000                       # number of overall miss cycles
system.cpu.dcache.overall_miss_latency::total   6415422000                       # number of overall miss cycles
system.cpu.dcache.demand_accesses::.cpu.data     35170478                       # number of demand (read+write) accesses
system.cpu.dcache.demand_accesses::total     35170478                       # number of demand (read+write) accesses
system.cpu.dcache.overall_accesses::.cpu.data     35173607                       # number of overall (read+write) accesses
system.cpu.dcache.overall_accesses::total     35173607                       # number of overall (read+write) accesses
system.cpu.dcache.demand_miss_rate::.cpu.data     0.002197                       # miss rate for demand accesses
system.cpu.dcache.demand_miss_rate::total     0.002197                       # miss rate for demand accesses
system.cpu.dcache.overall_miss_rate::.cpu.data     0.002198                       # miss rate for overall accesses
system.cpu.dcache.overall_miss_rate::total     0.002198                       # miss rate for overall accesses
system.cpu.dcache.demand_avg_miss_latency::.cpu.data 83032.486022                       # average overall miss latency
system.cpu.dcache.demand_avg_miss_latency::total 83032.486022                       # average overall miss latency
system.cpu.dcache.overall_avg_miss_latency::.cpu.data 82976.641316                       # average overall miss latency
system.cpu.dcache.overall_avg_miss_latency::total 82976.641316                       # average overall miss latency
system.cpu.dcache.blocked_cycles::no_mshrs            0                       # number of cycles access was blocked
system.cpu.dcache.blocked_cycles::no_targets            0                       # number of cycles access was blocked
system.cpu.dcache.blocked::no_mshrs                 0                       # number of cycles access was blocked
system.cpu.dcache.blocked::no_targets               0                       # number of cycles access was blocked
system.cpu.dcache.avg_blocked_cycles::no_mshrs          nan                       # average number of cycles each access was blocked
system.cpu.dcache.avg_blocked_cycles::no_targets          nan                       # average number of cycles each access was blocked
system.cpu.dcache.writebacks::.writebacks        50606                       # number of writebacks
system.cpu.dcache.writebacks::total             50606                       # number of writebacks
system.cpu.dcache.demand_mshr_hits::.cpu.data        20825                       # number of demand (read+write) MSHR hits
system.cpu.dcache.demand_mshr_hits::total        20825                       # number of demand (read+write) MSHR hits
system.cpu.dcache.overall_mshr_hits::.cpu.data        20825                       # number of overall MSHR hits
system.cpu.dcache.overall_mshr_hits::total        20825                       # number of overall MSHR hits
system.cpu.dcache.demand_mshr_misses::.cpu.data        56439                       # number of demand (read+write) MSHR misses
system.cpu.dcache.demand_mshr_misses::total        56439                       # number of demand (read+write) MSHR misses
system.cpu.dcache.overall_mshr_misses::.cpu.data        56484                       # number of overall MSHR misses
system.cpu.dcache.overall_mshr_misses::total        56484                       # number of overall MSHR misses
system.cpu.dcache.demand_mshr_miss_latency::.cpu.data   5000458000                       # number of demand (read+write) MSHR miss cycles
system.cpu.dcache.demand_mshr_miss_latency::total   5000458000                       # number of demand (read+write) MSHR miss cycles
system.cpu.dcache.overall_mshr_miss_latency::.cpu.data   5003091000                       # number of overall MSHR miss cycles
system.cpu.dcache.overall_mshr_miss_latency::total   5003091000                       # number of overall MSHR miss cycles
system.cpu.dcache.demand_mshr_miss_rate::.cpu.data     0.001605                       # mshr miss rate for demand accesses
system.cpu.dcache.demand_mshr_miss_rate::total     0.001605                       # mshr miss rate for demand accesses
system.cpu.dcache.overall_mshr_miss_rate::.cpu.data     0.001606                       # mshr miss rate for overall accesses
system.cpu.dcache.overall_mshr_miss_rate::total     0.001606                       # mshr miss rate for overall accesses
system.cpu.dcache.demand_avg_mshr_miss_latency::.cpu.data 88599.337338                       # average overall mshr miss latency
system.cpu.dcache.demand_avg_mshr_miss_latency::total 88599.337338                       # average overall mshr miss latency
system.cpu.dcache.overall_avg_mshr_miss_latency::.cpu.data 88575.366475                       # average overall mshr miss latency
system.cpu.dcache.overall_avg_mshr_miss_latency::total 88575.366475                       # average overall mshr miss latency
system.cpu.dcache.replacements                  54438                       # number of replacements
system.cpu.dcache.ReadReq_hits::.cpu.data     20884094                       # number of ReadReq hits
system.cpu.dcache.ReadReq_hits::total        20884094                       # number of ReadReq hits
system.cpu.dcache.ReadReq_misses::.cpu.data        19464                       # number of ReadReq misses
system.cpu.dcache.ReadReq_misses::total         19464                       # number of ReadReq misses
system.cpu.dcache.ReadReq_miss_latency::.cpu.data    852014000                       # number of ReadReq miss cycles
system.cpu.dcache.ReadReq_miss_latency::total    852014000                       # number of ReadReq miss cycles
system.cpu.dcache.ReadReq_accesses::.cpu.data     20903558                       # number of ReadReq accesses(hits+misses)
system.cpu.dcache.ReadReq_accesses::total     20903558                       # number of ReadReq accesses(hits+misses)
system.cpu.dcache.ReadReq_miss_rate::.cpu.data     0.000931                       # miss rate for ReadReq accesses
system.cpu.dcache.ReadReq_miss_rate::total     0.000931                       # miss rate for ReadReq accesses
system.cpu.dcache.ReadReq_avg_miss_latency::.cpu.data 43773.838882                       # average ReadReq miss latency
system.cpu.dcache.ReadReq_avg_miss_latency::total 43773.838882                       # average ReadReq miss latency
system.cpu.dcache.ReadReq_mshr_hits::.cpu.data         2837                       # number of ReadReq MSHR hits
system.cpu.dcache.ReadReq_mshr_hits::total         2837                       # number of ReadReq MSHR hits
system.cpu.dcache.ReadReq_mshr_misses::.cpu.data        16627                       # number of ReadReq MSHR misses
system.cpu.dcache.ReadReq_mshr_misses::total        16627                       # number of ReadReq MSHR misses
system.cpu.dcache.ReadReq_mshr_miss_latency::.cpu.data    725363000                       # number of ReadReq MSHR miss cycles
system.cpu.dcache.ReadReq_mshr_miss_latency::total    725363000                       # number of ReadReq MSHR miss cycles
system.cpu.dcache.ReadReq_mshr_miss_rate::.cpu.data     0.000795                       # mshr miss rate for ReadReq accesses
system.cpu.dcache.ReadReq_mshr_miss_rate::total     0.000795                       # mshr miss rate for ReadReq accesses
system.cpu.dcache.ReadReq_avg_mshr_miss_latency::.cpu.data 43625.608949                       # average ReadReq mshr miss latency
system.cpu.dcache.ReadReq_avg_mshr_miss_latency::total 43625.608949                       # average ReadReq mshr miss latency
system.cpu.dcache.WriteReq_hits::.cpu.data     14209120                       # number of WriteReq hits
system.cpu.dcache.WriteReq_hits::total       14209120                       # number of WriteReq hits
system.cpu.dcache.WriteReq_misses::.cpu.data        57800                       # number of WriteReq misses
system.cpu.dcache.WriteReq_misses::total        57800                       # number of WriteReq misses
system.cpu.dcache.WriteReq_miss_latency::.cpu.data   5563408000                       # number of WriteReq miss cycles
system.cpu.dcache.WriteReq_miss_latency::total   5563408000                       # number of WriteReq miss cycles
system.cpu.dcache.WriteReq_accesses::.cpu.data     14266920                       # number of WriteReq accesses(hits+misses)
system.cpu.dcache.WriteReq_accesses::total     14266920                       # number of WriteReq accesses(hits+misses)
system.cpu.dcache.WriteReq_miss_rate::.cpu.data     0.004051                       # miss rate for WriteReq accesses
system.cpu.dcache.WriteReq_miss_rate::total     0.004051                       # miss rate for WriteReq accesses
system.cpu.dcache.WriteReq_avg_miss_latency::.cpu.data 96252.733564                       # average WriteReq miss latency
system.cpu.dcache.WriteReq_avg_miss_latency::total 96252.733564                       # average WriteReq miss latency
system.cpu.dcache.WriteReq_mshr_hits::.cpu.data        17988                       # number of WriteReq MSHR hits
system.cpu.dcache.WriteReq_mshr_hits::total        17988                       # number of WriteReq MSHR hits
system.cpu.dcache.WriteReq_mshr_misses::.cpu.data        39812                       # number of WriteReq MSHR misses
system.cpu.dcache.WriteReq_mshr_misses::total        39812                       # number of WriteReq MSHR misses
system.cpu.dcache.WriteReq_mshr_miss_latency::.cpu.data   4275095000                       # number of WriteReq MSHR miss cycles
system.cpu.dcache.WriteReq_mshr_miss_latency::total   4275095000                       # number of WriteReq MSHR miss cycles
system.cpu.dcache.WriteReq_mshr_miss_rate::.cpu.data     0.002791                       # mshr miss rate for WriteReq accesses
system.cpu.dcache.WriteReq_mshr_miss_rate::total     0.002791                       # mshr miss rate for WriteReq accesses
system.cpu.dcache.WriteReq_avg_mshr_miss_latency::.cpu.data 107382.070732                       # average WriteReq mshr miss latency
system.cpu.dcache.WriteReq_avg_mshr_miss_latency::total 107382.070732                       # average WriteReq mshr miss latency
system.cpu.dcache.SoftPFReq_hits::.cpu.data         3077                       # number of SoftPFReq hits
system.cpu.dcache.SoftPFReq_hits::total          3077                       # number of SoftPFReq hits
system.cpu.dcache.SoftPFReq_misses::.cpu.data           52                       # number of SoftPFReq misses
system.cpu.dcache.SoftPFReq_misses::total           52                       # number of SoftPFReq misses
system.cpu.dcache.SoftPFReq_accesses::.cpu.data         3129                       # number of SoftPFReq accesses(hits+misses)
system.cpu.dcache.SoftPFReq_accesses::total         3129                       # number of SoftPFReq accesses(hits+misses)
system.cpu.dcache.SoftPFReq_miss_rate::.cpu.data     0.016619                       # miss rate for SoftPFReq accesses
system.cpu.dcache.SoftPFReq_miss_rate::total     0.016619                       # miss rate for SoftPFReq accesses
system.cpu.dcache.SoftPFReq_mshr_misses::.cpu.data           45                       # number of SoftPFReq MSHR misses
system.cpu.dcache.SoftPFReq_mshr_misses::total           45                       # number of SoftPFReq MSHR misses
system.cpu.dcache.SoftPFReq_mshr_miss_latency::.cpu.data      2633000                       # number of SoftPFReq MSHR miss cycles
system.cpu.dcache.SoftPFReq_mshr_miss_latency::total      2633000                       # number of SoftPFReq MSHR miss cycles
system.cpu.dcache.SoftPFReq_mshr_miss_rate::.cpu.data     0.014382                       # mshr miss rate for SoftPFReq accesses
system.cpu.dcache.SoftPFReq_mshr_miss_rate::total     0.014382                       # mshr miss rate for SoftPFReq accesses
system.cpu.dcache.SoftPFReq_avg_mshr_miss_latency::.cpu.data 58511.111111                       # average SoftPFReq mshr miss latency
system.cpu.dcache.SoftPFReq_avg_mshr_miss_latency::total 58511.111111                       # average SoftPFReq mshr miss latency
system.cpu.dcache.LoadLockedReq_hits::.cpu.data        85610                       # number of LoadLockedReq hits
system.cpu.dcache.LoadLockedReq_hits::total        85610                       # number of LoadLockedReq hits
system.cpu.dcache.LoadLockedReq_misses::.cpu.data            2                       # number of LoadLockedReq misses
system.cpu.dcache.LoadLockedReq_misses::total            2                       # number of LoadLockedReq misses
system.cpu.dcache.LoadLockedReq_miss_latency::.cpu.data       108000                       # number of LoadLockedReq miss cycles
system.cpu.dcache.LoadLockedReq_miss_latency::total       108000                       # number of LoadLockedReq miss cycles
system.cpu.dcache.LoadLockedReq_accesses::.cpu.data        85612                       # number of LoadLockedReq accesses(hits+misses)
system.cpu.dcache.LoadLockedReq_accesses::total        85612                       # number of LoadLockedReq accesses(hits+misses)
system.cpu.dcache.LoadLockedReq_miss_rate::.cpu.data     0.000023                       # miss rate for LoadLockedReq accesses
system.cpu.dcache.LoadLockedReq_miss_rate::total     0.000023                       # miss rate for LoadLockedReq accesses
system.cpu.dcache.LoadLockedReq_avg_miss_latency::.cpu.data        54000                       # average LoadLockedReq miss latency
system.cpu.dcache.LoadLockedReq_avg_miss_latency::total        54000                       # average LoadLockedReq miss latency
system.cpu.dcache.LoadLockedReq_mshr_misses::.cpu.data            2                       # number of LoadLockedReq MSHR misses
system.cpu.dcache.LoadLockedReq_mshr_misses::total            2                       # number of LoadLockedReq MSHR misses
system.cpu.dcache.LoadLockedReq_mshr_miss_latency::.cpu.data       104000                       # number of LoadLockedReq MSHR miss cycles
system.cpu.dcache.LoadLockedReq_mshr_miss_latency::total       104000                       # number of LoadLockedReq MSHR miss cycles
system.cpu.dcache.LoadLockedReq_mshr_miss_rate::.cpu.data     0.000023                       # mshr miss rate for LoadLockedReq accesses
system.cpu.dcache.LoadLockedReq_mshr_miss_rate::total     0.000023                       # mshr miss rate for LoadLockedReq accesses
system.cpu.dcache.LoadLockedReq_avg_mshr_miss_latency::.cpu.data        52000                       # average LoadLockedReq mshr miss latency
system.cpu.dcache.LoadLockedReq_avg_mshr_miss_latency::total        52000                       # average LoadLockedReq mshr miss latency
system.cpu.dcache.StoreCondReq_hits::.cpu.data        85610                       # number of StoreCondReq hits
system.cpu.dcache.StoreCondReq_hits::total        85610                       # number of StoreCondReq hits
system.cpu.dcache.StoreCondReq_accesses::.cpu.data        85610                       # number of StoreCondReq accesses(hits+misses)
system.cpu.dcache.StoreCondReq_accesses::total        85610                       # number of StoreCondReq accesses(hits+misses)
system.cpu.dcache.power_state.pwrStateResidencyTicks::UNDEFINED 109525337000                       # Cumulative time (in ticks) in various power states
system.cpu.dcache.tags.tagsinuse          2034.560634                       # Cycle average of tags in use
system.cpu.dcache.tags.total_refs            35323997                       # Total number of references to valid blocks.
system.cpu.dcache.tags.sampled_refs             56486                       # Sample count of references to valid blocks.
system.cpu.dcache.tags.avg_refs            625.358443                       # Average number of references to valid blocks.
system.cpu.dcache.tags.warmup_cycle            223000                       # Cycle when the warmup percentage was hit.
system.cpu.dcache.tags.occ_blocks::.cpu.data  2034.560634                       # Average occupied blocks per requestor
system.cpu.dcache.tags.occ_percent::.cpu.data     0.993438                       # Average percentage of cache occupancy
system.cpu.dcache.tags.occ_percent::total     0.993438                       # Average percentage of cache occupancy
system.cpu.dcache.tags.occ_task_id_blocks::1024         2048                       # Occupied blocks per task id
system.cpu.dcache.tags.age_task_id_blocks_1024::0            4                       # Occupied blocks per task id
system.cpu.dcache.tags.age_task_id_blocks_1024::1           21                       # Occupied blocks per task id
system.cpu.dcache.tags.age_task_id_blocks_1024::2          232                       # Occupied blocks per task id
system.cpu.dcache.tags.age_task_id_blocks_1024::3         1724                       # Occupied blocks per task id
system.cpu.dcache.tags.age_task_id_blocks_1024::4           67                       # Occupied blocks per task id
system.cpu.dcache.tags.occ_task_id_percent::1024            1                       # Percentage of cache occupancy per task id
system.cpu.dcache.tags.tag_accesses          35401315                       # Number of tag accesses
system.cpu.dcache.tags.data_accesses         35401315                       # Number of data accesses
system.cpu.dcache.tags.power_state.pwrStateResidencyTicks::UNDEFINED 109525337000                       # Cumulative time (in ticks) in various power states
system.cpu.dtb.instHits                             0                       # ITB inst hits
system.cpu.dtb.instMisses                           0                       # ITB inst misses
system.cpu.dtb.readHits                             0                       # DTB read hits
system.cpu.dtb.readMisses                           0                       # DTB read misses
system.cpu.dtb.writeHits                            0                       # DTB write hits
system.cpu.dtb.writeMisses                          0                       # DTB write misses
system.cpu.dtb.inserts                              0                       # Number of times an entry is inserted into the TLB
system.cpu.dtb.flushTlb                             0                       # Number of times complete TLB was flushed
system.cpu.dtb.flushTlbMva                          0                       # Number of times TLB was flushed by MVA
system.cpu.dtb.flushTlbMvaAsid                      0                       # Number of times TLB was flushed by MVA & ASID
system.cpu.dtb.flushTlbAsid                         0                       # Number of times TLB was flushed by ASID
system.cpu.dtb.flushedEntries                       0                       # Number of entries that have been flushed from TLB
system.cpu.dtb.alignFaults                          0                       # Number of TLB faults due to alignment restrictions
system.cpu.dtb.prefetchFaults                       0                       # Number of TLB faults due to prefetch
system.cpu.dtb.domainFaults                         0                       # Number of TLB faults due to domain restrictions
system.cpu.dtb.permsFaults                          0                       # Number of TLB faults due to permissions restrictions
system.cpu.dtb.readAccesses                         0                       # DTB read accesses
system.cpu.dtb.writeAccesses                        0                       # DTB write accesses
system.cpu.dtb.instAccesses                         0                       # ITB inst accesses
system.cpu.dtb.hits                                 0                       # Total TLB (inst and data) hits
system.cpu.dtb.misses                               0                       # Total TLB (inst and data) misses
system.cpu.dtb.accesses                             0                       # Total TLB (inst and data) accesses
system.cpu.dtb.stage2_mmu.stage2_tlb.instHits            0                       # ITB inst hits
system.cpu.dtb.stage2_mmu.stage2_tlb.instMisses            0                       # ITB inst misses
system.cpu.dtb.stage2_mmu.stage2_tlb.readHits            0                       # DTB read hits
system.cpu.dtb.stage2_mmu.stage2_tlb.readMisses            0                       # DTB read misses
system.cpu.dtb.stage2_mmu.stage2_tlb.writeHits            0                       # DTB write hits
system.cpu.dtb.stage2_mmu.stage2_tlb.writeMisses            0                       # DTB write misses
system.cpu.dtb.stage2_mmu.stage2_tlb.inserts            0                       # Number of times an entry is inserted into the TLB
system.cpu.dtb.stage2_mmu.stage2_tlb.flushTlb            0                       # Number of times complete TLB was flushed
system.cpu.dtb.stage2_mmu.stage2_tlb.flushTlbMva            0                       # Number of times TLB was flushed by MVA
system.cpu.dtb.stage2_mmu.stage2_tlb.flushTlbMvaAsid            0                       # Number of times TLB was flushed by MVA & ASID
system.cpu.dtb.stage2_mmu.stage2_tlb.flushTlbAsid            0                       # Number of times TLB was flushed by ASID
system.cpu.dtb.stage2_mmu.stage2_tlb.flushedEntries            0                       # Number of entries that have been flushed from TLB
system.cpu.dtb.stage2_mmu.stage2_tlb.alignFaults            0                       # Number of TLB faults due to alignment restrictions
system.cpu.dtb.stage2_mmu.stage2_tlb.prefetchFaults            0                       # Number of TLB faults due to prefetch
system.cpu.dtb.stage2_mmu.stage2_tlb.domainFaults            0                       # Number of TLB faults due to domain restrictions
system.cpu.dtb.stage2_mmu.stage2_tlb.permsFaults            0                       # Number of TLB faults due to permissions restrictions
system.cpu.dtb.stage2_mmu.stage2_tlb.readAccesses            0                       # DTB read accesses
system.cpu.dtb.stage2_mmu.stage2_tlb.writeAccesses            0                       # DTB write accesses
system.cpu.dtb.stage2_mmu.stage2_tlb.instAccesses            0                       # ITB inst accesses
system.cpu.dtb.stage2_mmu.stage2_tlb.hits            0                       # Total TLB (inst and data) hits
system.cpu.dtb.stage2_mmu.stage2_tlb.misses            0                       # Total TLB (inst and data) misses
system.cpu.dtb.stage2_mmu.stage2_tlb.accesses            0                       # Total TLB (inst and data) accesses
system.cpu.dtb.stage2_mmu.stage2_tlb.walker.walks            0                       # Table walker walks requested
system.cpu.dtb.stage2_mmu.stage2_tlb.walker.requestOrigin_Requested::Data            0                       # Table walker requests started/completed, data/inst
system.cpu.dtb.stage2_mmu.stage2_tlb.walker.requestOrigin_Requested::Inst            0                       # Table walker requests started/completed, data/inst
system.cpu.dtb.stage2_mmu.stage2_tlb.walker.requestOrigin_Requested::total            0                       # Table walker requests started/completed, data/inst
system.cpu.dtb.stage2_mmu.stage2_tlb.walker.requestOrigin_Completed::Data            0                       # Table walker requests started/completed, data/inst
system.cpu.dtb.stage2_mmu.stage2_tlb.walker.requestOrigin_Completed::Inst            0                       # Table walker requests started/completed, data/inst
system.cpu.dtb.stage2_mmu.stage2_tlb.walker.requestOrigin_Completed::total            0                       # Table walker requests started/completed, data/inst
system.cpu.dtb.stage2_mmu.stage2_tlb.walker.requestOrigin::total            0                       # Table walker requests started/completed, data/inst
system.cpu.dtb.stage2_mmu.stage2_tlb.walker.power_state.pwrStateResidencyTicks::UNDEFINED 109525337000                       # Cumulative time (in ticks) in various power states
system.cpu.dtb.walker.walks                         0                       # Table walker walks requested
system.cpu.dtb.walker.requestOrigin_Requested::Data            0                       # Table walker requests started/completed, data/inst
system.cpu.dtb.walker.requestOrigin_Requested::Inst            0                       # Table walker requests started/completed, data/inst
system.cpu.dtb.walker.requestOrigin_Requested::total            0                       # Table walker requests started/completed, data/inst
system.cpu.dtb.walker.requestOrigin_Completed::Data            0                       # Table walker requests started/completed, data/inst
system.cpu.dtb.walker.requestOrigin_Completed::Inst            0                       # Table walker requests started/completed, data/inst
system.cpu.dtb.walker.requestOrigin_Completed::total            0                       # Table walker requests started/completed, data/inst
system.cpu.dtb.walker.requestOrigin::total            0                       # Table walker requests started/completed, data/inst
system.cpu.dtb.walker.power_state.pwrStateResidencyTicks::UNDEFINED 109525337000                       # Cumulative time (in ticks) in various power states
system.cpu.fetch2.intInstructions            49125352                       # Number of integer instructions successfully decoded
system.cpu.fetch2.fpInstructions                    0                       # Number of floating point instructions successfully decoded
system.cpu.fetch2.vecInstructions                   0                       # Number of SIMD instructions successfully decoded
system.cpu.fetch2.loadInstructions           17532461                       # Number of memory load instructions successfully decoded
system.cpu.fetch2.storeInstructions          10086697                       # Number of memory store instructions successfully decoded
system.cpu.fetch2.amoInstructions                   0                       # Number of memory atomic instructions successfully decoded
system.cpu.icache.demand_hits::.cpu.inst     27002473                       # number of demand (read+write) hits
system.cpu.icache.demand_hits::total         27002473                       # number of demand (read+write) hits
system.cpu.icache.overall_hits::.cpu.inst     27002473                       # number of overall hits
system.cpu.icache.overall_hits::total        27002473                       # number of overall hits
system.cpu.icache.demand_misses::.cpu.inst          781                       # number of demand (read+write) misses
system.cpu.icache.demand_misses::total            781                       # number of demand (read+write) misses
system.cpu.icache.overall_misses::.cpu.inst          781                       # number of overall misses
system.cpu.icache.overall_misses::total           781                       # number of overall misses
system.cpu.icache.demand_miss_latency::.cpu.inst     58597000                       # number of demand (read+write) miss cycles
system.cpu.icache.demand_miss_latency::total     58597000                       # number of demand (read+write) miss cycles
system.cpu.icache.overall_miss_latency::.cpu.inst     58597000                       # number of overall miss cycles
system.cpu.icache.overall_miss_latency::total     58597000                       # number of overall miss cycles
system.cpu.icache.demand_accesses::.cpu.inst     27003254                       # number of demand (read+write) accesses
system.cpu.icache.demand_accesses::total     27003254                       # number of demand (read+write) accesses
system.cpu.icache.overall_accesses::.cpu.inst     27003254                       # number of overall (read+write) accesses
system.cpu.icache.overall_accesses::total     27003254                       # number of overall (read+write) accesses
system.cpu.icache.demand_miss_rate::.cpu.inst     0.000029                       # miss rate for demand accesses
system.cpu.icache.demand_miss_rate::total     0.000029                       # miss rate for demand accesses
system.cpu.icache.overall_miss_rate::.cpu.inst     0.000029                       # miss rate for overall accesses
system.cpu.icache.overall_miss_rate::total     0.000029                       # miss rate for overall accesses
system.cpu.icache.demand_avg_miss_latency::.cpu.inst 75028.169014                       # average overall miss latency
system.cpu.icache.demand_avg_miss_latency::total 75028.169014                       # average overall miss latency
system.cpu.icache.overall_avg_miss_latency::.cpu.inst 75028.169014                       # average overall miss latency
system.cpu.icache.overall_avg_miss_latency::total 75028.169014                       # average overall miss latency
system.cpu.icache.blocked_cycles::no_mshrs            0                       # number of cycles access was blocked
system.cpu.icache.blocked_cycles::no_targets            0                       # number of cycles access was blocked
system.cpu.icache.blocked::no_mshrs                 0                       # number of cycles access was blocked
system.cpu.icache.blocked::no_targets               0                       # number of cycles access was blocked
system.cpu.icache.avg_blocked_cycles::no_mshrs          nan                       # average number of cycles each access was blocked
system.cpu.icache.avg_blocked_cycles::no_targets          nan                       # average number of cycles each access was blocked
system.cpu.icache.writebacks::.writebacks          297                       # number of writebacks
system.cpu.icache.writebacks::total               297                       # number of writebacks
system.cpu.icache.demand_mshr_misses::.cpu.inst          781                       # number of demand (read+write) MSHR misses
system.cpu.icache.demand_mshr_misses::total          781                       # number of demand (read+write) MSHR misses
system.cpu.icache.overall_mshr_misses::.cpu.inst          781                       # number of overall MSHR misses
system.cpu.icache.overall_mshr_misses::total          781                       # number of overall MSHR misses
system.cpu.icache.demand_mshr_miss_latency::.cpu.inst     57035000                       # number of demand (read+write) MSHR miss cycles
system.cpu.icache.demand_mshr_miss_latency::total     57035000                       # number of demand (read+write) MSHR miss cycles
system.cpu.icache.overall_mshr_miss_latency::.cpu.inst     57035000                       # number of overall MSHR miss cycles
system.cpu.icache.overall_mshr_miss_latency::total     57035000                       # number of overall MSHR miss cycles
system.cpu.icache.demand_mshr_miss_rate::.cpu.inst     0.000029                       # mshr miss rate for demand accesses
system.cpu.icache.demand_mshr_miss_rate::total     0.000029                       # mshr miss rate for demand accesses
system.cpu.icache.overall_mshr_miss_rate::.cpu.inst     0.000029                       # mshr miss rate for overall accesses
system.cpu.icache.overall_mshr_miss_rate::total     0.000029                       # mshr miss rate for overall accesses
system.cpu.icache.demand_avg_mshr_miss_latency::.cpu.inst 73028.169014                       # average overall mshr miss latency
system.cpu.icache.demand_avg_mshr_miss_latency::total 73028.169014                       # average overall mshr miss latency
system.cpu.icache.overall_avg_mshr_miss_latency::.cpu.inst 73028.169014                       # average overall mshr miss latency
system.cpu.icache.overall_avg_mshr_miss_latency::total 73028.169014                       # average overall mshr miss latency
system.cpu.icache.replacements                    297                       # number of replacements
system.cpu.icache.ReadReq_hits::.cpu.inst     27002473                       # number of ReadReq hits
system.cpu.icache.ReadReq_hits::total        27002473                       # number of ReadReq hits
system.cpu.icache.ReadReq_misses::.cpu.inst          781                       # number of ReadReq misses
system.cpu.icache.ReadReq_misses::total           781                       # number of ReadReq misses
system.cpu.icache.ReadReq_miss_latency::.cpu.inst     58597000                       # number of ReadReq miss cycles
system.cpu.icache.ReadReq_miss_latency::total     58597000                       # number of ReadReq miss cycles
system.cpu.icache.ReadReq_accesses::.cpu.inst     27003254                       # number of ReadReq accesses(hits+misses)
system.cpu.icache.ReadReq_accesses::total     27003254                       # number of ReadReq accesses(hits+misses)
system.cpu.icache.ReadReq_miss_rate::.cpu.inst     0.000029                       # miss rate for ReadReq accesses
system.cpu.icache.ReadReq_miss_rate::total     0.000029                       # miss rate for ReadReq accesses
system.cpu.icache.ReadReq_avg_miss_latency::.cpu.inst 75028.169014                       # average ReadReq miss latency
system.cpu.icache.ReadReq_avg_miss_latency::total 75028.169014                       # average ReadReq miss latency
system.cpu.icache.ReadReq_mshr_misses::.cpu.inst          781                       # number of ReadReq MSHR misses
system.cpu.icache.ReadReq_mshr_misses::total          781                       # number of ReadReq MSHR misses
system.cpu.icache.ReadReq_mshr_miss_latency::.cpu.inst     57035000                       # number of ReadReq MSHR miss cycles
system.cpu.icache.ReadReq_mshr_miss_latency::total     57035000                       # number of ReadReq MSHR miss cycles
system.cpu.icache.ReadReq_mshr_miss_rate::.cpu.inst     0.000029                       # mshr miss rate for ReadReq accesses
system.cpu.icache.ReadReq_mshr_miss_rate::total     0.000029                       # mshr miss rate for ReadReq accesses
system.cpu.icache.ReadReq_avg_mshr_miss_latency::.cpu.inst 73028.169014                       # average ReadReq mshr miss latency
system.cpu.icache.ReadReq_avg_mshr_miss_latency::total 73028.169014                       # average ReadReq mshr miss latency
system.cpu.icache.power_state.pwrStateResidencyTicks::UNDEFINED 109525337000                       # Cumulative time (in ticks) in various power states
system.cpu.icache.tags.tagsinuse           483.041082                       # Cycle average of tags in use
system.cpu.icache.tags.total_refs            27003254                       # Total number of references to valid blocks.
system.cpu.icache.tags.sampled_refs               781                       # Sample count of references to valid blocks.
system.cpu.icache.tags.avg_refs          34575.229193                       # Average number of references to valid blocks.
system.cpu.icache.tags.warmup_cycle            108000                       # Cycle when the warmup percentage was hit.
system.cpu.icache.tags.occ_blocks::.cpu.inst   483.041082                       # Average occupied blocks per requestor
system.cpu.icache.tags.occ_percent::.cpu.inst     0.235860                       # Average percentage of cache occupancy
system.cpu.icache.tags.occ_percent::total     0.235860                       # Average percentage of cache occupancy
system.cpu.icache.tags.occ_task_id_blocks::1024          484                       # Occupied blocks per task id
system.cpu.icache.tags.age_task_id_blocks_1024::1            2                       # Occupied blocks per task id
system.cpu.icache.tags.age_task_id_blocks_1024::4          482                       # Occupied blocks per task id
system.cpu.icache.tags.occ_task_id_percent::1024     0.236328                       # Percentage of cache occupancy per task id
system.cpu.icache.tags.tag_accesses          27004035                       # Number of tag accesses
system.cpu.icache.tags.data_accesses         27004035                       # Number of data accesses
system.cpu.icache.tags.power_state.pwrStateResidencyTicks::UNDEFINED 109525337000                       # Cumulative time (in ticks) in various power states
system.cpu.itb.instHits                             0                       # ITB inst hits
system.cpu.itb.instMisses                           0                       # ITB inst misses
system.cpu.itb.readHits                             0                       # DTB read hits
system.cpu.itb.readMisses                           0                       # DTB read misses
system.cpu.itb.writeHits                            0                       # DTB write hits
system.cpu.itb.writeMisses                          0                       # DTB write misses
system.cpu.itb.inserts                              0                       # Number of times an entry is inserted into the TLB
system.cpu.itb.flushTlb                             0                       # Number of times complete TLB was flushed
system.cpu.itb.flushTlbMva                          0                       # Number of times TLB was flushed by MVA
system.cpu.itb.flushTlbMvaAsid                      0                       # Number of times TLB was flushed by MVA & ASID
system.cpu.itb.flushTlbAsid                         0                       # Number of times TLB was flushed by ASID
system.cpu.itb.flushedEntries                       0                       # Number of entries that have been flushed from TLB
system.cpu.itb.alignFaults                          0                       # Number of TLB faults due to alignment restrictions
system.cpu.itb.prefetchFaults                       0                       # Number of TLB faults due to prefetch
system.cpu.itb.domainFaults                         0                       # Number of TLB faults due to domain restrictions
system.cpu.itb.permsFaults                          0                       # Number of TLB faults due to permissions restrictions
system.cpu.itb.readAccesses                         0                       # DTB read accesses
system.cpu.itb.writeAccesses                        0                       # DTB write accesses
system.cpu.itb.instAccesses                         0                       # ITB inst accesses
system.cpu.itb.hits                                 0                       # Total TLB (inst and data) hits
system.cpu.itb.misses                               0                       # Total TLB (inst and data) misses
system.cpu.itb.accesses                             0                       # Total TLB (inst and data) accesses
system.cpu.itb.stage2_mmu.stage2_tlb.instHits            0                       # ITB inst hits
system.cpu.itb.stage2_mmu.stage2_tlb.instMisses            0                       # ITB inst misses
system.cpu.itb.stage2_mmu.stage2_tlb.readHits            0                       # DTB read hits
system.cpu.itb.stage2_mmu.stage2_tlb.readMisses            0                       # DTB read misses
system.cpu.itb.stage2_mmu.stage2_tlb.writeHits            0                       # DTB write hits
system.cpu.itb.stage2_mmu.stage2_tlb.writeMisses            0                       # DTB write misses
system.cpu.itb.stage2_mmu.stage2_tlb.inserts            0                       # Number of times an entry is inserted into the TLB
system.cpu.itb.stage2_mmu.stage2_tlb.flushTlb            0                       # Number of times complete TLB was flushed
system.cpu.itb.stage2_mmu.stage2_tlb.flushTlbMva            0                       # Number of times TLB was flushed by MVA
system.cpu.itb.stage2_mmu.stage2_tlb.flushTlbMvaAsid            0                       # Number of times TLB was flushed by MVA & ASID
system.cpu.itb.stage2_mmu.stage2_tlb.flushTlbAsid            0                       # Number of times TLB was flushed by ASID
system.cpu.itb.stage2_mmu.stage2_tlb.flushedEntries            0                       # Number of entries that have been flushed from TLB
system.cpu.itb.stage2_mmu.stage2_tlb.alignFaults            0                       # Number of TLB faults due to alignment restrictions
system.cpu.itb.stage2_mmu.stage2_tlb.prefetchFaults            0                       # Number of TLB faults due to prefetch
system.cpu.itb.stage2_mmu.stage2_tlb.domainFaults            0                       # Number of TLB faults due to domain restrictions
system.cpu.itb.stage2_mmu.stage2_tlb.permsFaults            0                       # Number of TLB faults due to permissions restrictions
system.cpu.itb.stage2_mmu.stage2_tlb.readAccesses            0                       # DTB read accesses
system.cpu.itb.stage2_mmu.stage2_tlb.writeAccesses            0                       # DTB write accesses
system.cpu.itb.stage2_mmu.stage2_tlb.instAccesses            0                       # ITB inst accesses
system.cpu.itb.stage2_mmu.stage2_tlb.hits            0                       # Total TLB (inst and data) hits
system.cpu.itb.stage2_mmu.stage2_tlb.misses            0                       # Total TLB (inst and data) misses
system.cpu.itb.stage2_mmu.stage2_tlb.accesses            0                       # Total TLB (inst and data) accesses
system.cpu.itb.stage2_mmu.stage2_tlb.walker.walks            0                       # Table walker walks requested
system.cpu.itb.stage2_mmu.stage2_tlb.walker.requestOrigin_Requested::Data            0                       # Table walker requests started/completed, data/inst
system.cpu.itb.stage2_mmu.stage2_tlb.walker.requestOrigin_Requested::Inst            0                       # Table walker requests started/completed, data/inst
system.cpu.itb.stage2_mmu.stage2_tlb.walker.requestOrigin_Requested::total            0                       # Table walker requests started/completed, data/inst
system.cpu.itb.stage2_mmu.stage2_tlb.walker.requestOrigin_Completed::Data            0                       # Table walker requests started/completed, data/inst
system.cpu.itb.stage2_mmu.stage2_tlb.walker.requestOrigin_Completed::Inst            0                       # Table walker requests started/completed, data/inst
system.cpu.itb.stage2_mmu.stage2_tlb.walker.requestOrigin_Completed::total            0                       # Table walker requests started/completed, data/inst
system.cpu.itb.stage2_mmu.stage2_tlb.walker.requestOrigin::total            0                       # Table walker requests started/completed, data/inst
system.cpu.itb.stage2_mmu.stage2_tlb.walker.power_state.pwrStateResidencyTicks::UNDEFINED 109525337000                       # Cumulative time (in ticks) in various power states
system.cpu.itb.walker.walks                         0                       # Table walker walks requested
system.cpu.itb.walker.requestOrigin_Requested::Data            0                       # Table walker requests started/completed, data/inst
system.cpu.itb.walker.requestOrigin_Requested::Inst            0                       # Table walker requests started/completed, data/inst
system.cpu.itb.walker.requestOrigin_Requested::total            0                       # Table walker requests started/completed, data/inst
system.cpu.itb.walker.requestOrigin_Completed::Data            0                       # Table walker requests started/completed, data/inst
system.cpu.itb.walker.requestOrigin_Completed::Inst            0                       # Table walker requests started/completed, data/inst
system.cpu.itb.walker.requestOrigin_Completed::total            0                       # Table walker requests started/completed, data/inst
system.cpu.itb.walker.requestOrigin::total            0                       # Table walker requests started/completed, data/inst
system.cpu.itb.walker.power_state.pwrStateResidencyTicks::UNDEFINED 109525337000                       # Cumulative time (in ticks) in various power states
system.cpu.power_state.pwrStateResidencyTicks::ON 109525337000                       # Cumulative time (in ticks) in various power states
system.cpu.thread_0.numInsts                100000001                       # Number of Instructions committed
system.cpu.thread_0.numOps                  109139393                       # Number of Ops committed
system.cpu.thread_0.numMemRefs                      0                       # Number of Memory References
system.cpu_clk_domain.clock                      1000                       # Clock period in ticks
system.cpu_voltage_domain.voltage                   1                       # Voltage in Volts
system.l2.demand_hits::.cpu.inst                  273                       # number of demand (read+write) hits
system.l2.demand_hits::.cpu.data                15021                       # number of demand (read+write) hits
system.l2.demand_hits::total                    15294                       # number of demand (read+write) hits
system.l2.overall_hits::.cpu.inst                 273                       # number of overall hits
system.l2.overall_hits::.cpu.data               15021                       # number of overall hits
system.l2.overall_hits::total                   15294                       # number of overall hits
system.l2.demand_misses::.cpu.inst                508                       # number of demand (read+write) misses
system.l2.demand_misses::.cpu.data              41465                       # number of demand (read+write) misses
system.l2.demand_misses::total                  41973                       # number of demand (read+write) misses
system.l2.overall_misses::.cpu.inst               508                       # number of overall misses
system.l2.overall_misses::.cpu.data             41465                       # number of overall misses
system.l2.overall_misses::total                 41973                       # number of overall misses
system.l2.demand_miss_latency::.cpu.inst     48939000                       # number of demand (read+write) miss cycles
system.l2.demand_miss_latency::.cpu.data   4501714000                       # number of demand (read+write) miss cycles
system.l2.demand_miss_latency::total       4550653000                       # number of demand (read+write) miss cycles
system.l2.overall_miss_latency::.cpu.inst     48939000                       # number of overall miss cycles
system.l2.overall_miss_latency::.cpu.data   4501714000                       # number of overall miss cycles
system.l2.overall_miss_latency::total      4550653000                       # number of overall miss cycles
system.l2.demand_accesses::.cpu.inst              781                       # number of demand (read+write) accesses
system.l2.demand_accesses::.cpu.data            56486                       # number of demand (read+write) accesses
system.l2.demand_accesses::total                57267                       # number of demand (read+write) accesses
system.l2.overall_accesses::.cpu.inst             781                       # number of overall (read+write) accesses
system.l2.overall_accesses::.cpu.data           56486                       # number of overall (read+write) accesses
system.l2.overall_accesses::total               57267                       # number of overall (read+write) accesses
system.l2.demand_miss_rate::.cpu.inst        0.650448                       # miss rate for demand accesses
system.l2.demand_miss_rate::.cpu.data        0.734076                       # miss rate for demand accesses
system.l2.demand_miss_rate::total            0.732935                       # miss rate for demand accesses
system.l2.overall_miss_rate::.cpu.inst       0.650448                       # miss rate for overall accesses
system.l2.overall_miss_rate::.cpu.data       0.734076                       # miss rate for overall accesses
system.l2.overall_miss_rate::total           0.732935                       # miss rate for overall accesses
system.l2.demand_avg_miss_latency::.cpu.inst 96336.614173                       # average overall miss latency
system.l2.demand_avg_miss_latency::.cpu.data 108566.598336                       # average overall miss latency
system.l2.demand_avg_miss_latency::total 108418.578610                       # average overall miss latency
system.l2.overall_avg_miss_latency::.cpu.inst 96336.614173                       # average overall miss latency
system.l2.overall_avg_miss_latency::.cpu.data 108566.598336                       # average overall miss latency
system.l2.overall_avg_miss_latency::total 108418.578610                       # average overall miss latency
system.l2.blocked_cycles::no_mshrs                  0                       # number of cycles access was blocked
system.l2.blocked_cycles::no_targets                0                       # number of cycles access was blocked
system.l2.blocked::no_mshrs                         0                       # number of cycles access was blocked
system.l2.blocked::no_targets                       0                       # number of cycles access was blocked
system.l2.avg_blocked_cycles::no_mshrs            nan                       # average number of cycles each access was blocked
system.l2.avg_blocked_cycles::no_targets          nan                       # average number of cycles each access was blocked
system.l2.writebacks::.writebacks               24996                       # number of writebacks
system.l2.writebacks::total                     24996                       # number of writebacks
system.l2.demand_mshr_hits::.cpu.data               1                       # number of demand (read+write) MSHR hits
system.l2.demand_mshr_hits::total                   1                       # number of demand (read+write) MSHR hits
system.l2.overall_mshr_hits::.cpu.data              1                       # number of overall MSHR hits
system.l2.overall_mshr_hits::total                  1                       # number of overall MSHR hits
system.l2.demand_mshr_misses::.cpu.inst           508                       # number of demand (read+write) MSHR misses
system.l2.demand_mshr_misses::.cpu.data         41464                       # number of demand (read+write) MSHR misses
system.l2.demand_mshr_misses::total             41972                       # number of demand (read+write) MSHR misses
system.l2.overall_mshr_misses::.cpu.inst          508                       # number of overall MSHR misses
system.l2.overall_mshr_misses::.cpu.data        41464                       # number of overall MSHR misses
system.l2.overall_mshr_misses::total            41972                       # number of overall MSHR misses
system.l2.demand_mshr_miss_latency::.cpu.inst     38779000                       # number of demand (read+write) MSHR miss cycles
system.l2.demand_mshr_miss_latency::.cpu.data   3672347000                       # number of demand (read+write) MSHR miss cycles
system.l2.demand_mshr_miss_latency::total   3711126000                       # number of demand (read+write) MSHR miss cycles
system.l2.overall_mshr_miss_latency::.cpu.inst     38779000                       # number of overall MSHR miss cycles
system.l2.overall_mshr_miss_latency::.cpu.data   3672347000                       # number of overall MSHR miss cycles
system.l2.overall_mshr_miss_latency::total   3711126000                       # number of overall MSHR miss cycles
system.l2.demand_mshr_miss_rate::.cpu.inst     0.650448                       # mshr miss rate for demand accesses
system.l2.demand_mshr_miss_rate::.cpu.data     0.734058                       # mshr miss rate for demand accesses
system.l2.demand_mshr_miss_rate::total       0.732918                       # mshr miss rate for demand accesses
system.l2.overall_mshr_miss_rate::.cpu.inst     0.650448                       # mshr miss rate for overall accesses
system.l2.overall_mshr_miss_rate::.cpu.data     0.734058                       # mshr miss rate for overall accesses
system.l2.overall_mshr_miss_rate::total      0.732918                       # mshr miss rate for overall accesses
system.l2.demand_avg_mshr_miss_latency::.cpu.inst 76336.614173                       # average overall mshr miss latency
system.l2.demand_avg_mshr_miss_latency::.cpu.data 88567.118464                       # average overall mshr miss latency
system.l2.demand_avg_mshr_miss_latency::total 88419.088916                       # average overall mshr miss latency
system.l2.overall_avg_mshr_miss_latency::.cpu.inst 76336.614173                       # average overall mshr miss latency
system.l2.overall_avg_mshr_miss_latency::.cpu.data 88567.118464                       # average overall mshr miss latency
system.l2.overall_avg_mshr_miss_latency::total 88419.088916                       # average overall mshr miss latency
system.l2.replacements                          25819                       # number of replacements
system.l2.WritebackDirty_hits::.writebacks        50606                       # number of WritebackDirty hits
system.l2.WritebackDirty_hits::total            50606                       # number of WritebackDirty hits
system.l2.WritebackDirty_accesses::.writebacks        50606                       # number of WritebackDirty accesses(hits+misses)
system.l2.WritebackDirty_accesses::total        50606                       # number of WritebackDirty accesses(hits+misses)
system.l2.WritebackClean_hits::.writebacks          296                       # number of WritebackClean hits
system.l2.WritebackClean_hits::total              296                       # number of WritebackClean hits
system.l2.WritebackClean_accesses::.writebacks          296                       # number of WritebackClean accesses(hits+misses)
system.l2.WritebackClean_accesses::total          296                       # number of WritebackClean accesses(hits+misses)
system.l2.CleanEvict_mshr_misses::.writebacks           28                       # number of CleanEvict MSHR misses
system.l2.CleanEvict_mshr_misses::total            28                       # number of CleanEvict MSHR misses
system.l2.CleanEvict_mshr_miss_rate::.writebacks          inf                       # mshr miss rate for CleanEvict accesses
system.l2.CleanEvict_mshr_miss_rate::total          inf                       # mshr miss rate for CleanEvict accesses
system.l2.ReadExReq_hits::.cpu.data              1871                       # number of ReadExReq hits
system.l2.ReadExReq_hits::total                  1871                       # number of ReadExReq hits
system.l2.ReadExReq_misses::.cpu.data           37941                       # number of ReadExReq misses
system.l2.ReadExReq_misses::total               37941                       # number of ReadExReq misses
system.l2.ReadExReq_miss_latency::.cpu.data   4109305000                       # number of ReadExReq miss cycles
system.l2.ReadExReq_miss_latency::total    4109305000                       # number of ReadExReq miss cycles
system.l2.ReadExReq_accesses::.cpu.data         39812                       # number of ReadExReq accesses(hits+misses)
system.l2.ReadExReq_accesses::total             39812                       # number of ReadExReq accesses(hits+misses)
system.l2.ReadExReq_miss_rate::.cpu.data     0.953004                       # miss rate for ReadExReq accesses
system.l2.ReadExReq_miss_rate::total         0.953004                       # miss rate for ReadExReq accesses
system.l2.ReadExReq_avg_miss_latency::.cpu.data 108307.767323                       # average ReadExReq miss latency
system.l2.ReadExReq_avg_miss_latency::total 108307.767323                       # average ReadExReq miss latency
system.l2.ReadExReq_mshr_misses::.cpu.data        37941                       # number of ReadExReq MSHR misses
system.l2.ReadExReq_mshr_misses::total          37941                       # number of ReadExReq MSHR misses
system.l2.ReadExReq_mshr_miss_latency::.cpu.data   3350485000                       # number of ReadExReq MSHR miss cycles
system.l2.ReadExReq_mshr_miss_latency::total   3350485000                       # number of ReadExReq MSHR miss cycles
system.l2.ReadExReq_mshr_miss_rate::.cpu.data     0.953004                       # mshr miss rate for ReadExReq accesses
system.l2.ReadExReq_mshr_miss_rate::total     0.953004                       # mshr miss rate for ReadExReq accesses
system.l2.ReadExReq_avg_mshr_miss_latency::.cpu.data 88307.767323                       # average ReadExReq mshr miss latency
system.l2.ReadExReq_avg_mshr_miss_latency::total 88307.767323                       # average ReadExReq mshr miss latency
system.l2.ReadCleanReq_hits::.cpu.inst            273                       # number of ReadCleanReq hits
system.l2.ReadCleanReq_hits::total                273                       # number of ReadCleanReq hits
system.l2.ReadCleanReq_misses::.cpu.inst          508                       # number of ReadCleanReq misses
system.l2.ReadCleanReq_misses::total              508                       # number of ReadCleanReq misses
system.l2.ReadCleanReq_miss_latency::.cpu.inst     48939000                       # number of ReadCleanReq miss cycles
system.l2.ReadCleanReq_miss_latency::total     48939000                       # number of ReadCleanReq miss cycles
system.l2.ReadCleanReq_accesses::.cpu.inst          781                       # number of ReadCleanReq accesses(hits+misses)
system.l2.ReadCleanReq_accesses::total            781                       # number of ReadCleanReq accesses(hits+misses)
system.l2.ReadCleanReq_miss_rate::.cpu.inst     0.650448                       # miss rate for ReadCleanReq accesses
system.l2.ReadCleanReq_miss_rate::total      0.650448                       # miss rate for ReadCleanReq accesses
system.l2.ReadCleanReq_avg_miss_latency::.cpu.inst 96336.614173                       # average ReadCleanReq miss latency
system.l2.ReadCleanReq_avg_miss_latency::total 96336.614173                       # average ReadCleanReq miss latency
system.l2.ReadCleanReq_mshr_misses::.cpu.inst          508                       # number of ReadCleanReq MSHR misses
system.l2.ReadCleanReq_mshr_misses::total          508                       # number of ReadCleanReq MSHR misses
system.l2.ReadCleanReq_mshr_miss_latency::.cpu.inst     38779000                       # number of ReadCleanReq MSHR miss cycles
system.l2.ReadCleanReq_mshr_miss_latency::total     38779000                       # number of ReadCleanReq MSHR miss cycles
system.l2.ReadCleanReq_mshr_miss_rate::.cpu.inst     0.650448                       # mshr miss rate for ReadCleanReq accesses
system.l2.ReadCleanReq_mshr_miss_rate::total     0.650448                       # mshr miss rate for ReadCleanReq accesses
system.l2.ReadCleanReq_avg_mshr_miss_latency::.cpu.inst 76336.614173                       # average ReadCleanReq mshr miss latency
system.l2.ReadCleanReq_avg_mshr_miss_latency::total 76336.614173                       # average ReadCleanReq mshr miss latency
system.l2.ReadSharedReq_hits::.cpu.data         13150                       # number of ReadSharedReq hits
system.l2.ReadSharedReq_hits::total             13150                       # number of ReadSharedReq hits
system.l2.ReadSharedReq_misses::.cpu.data         3524                       # number of ReadSharedReq misses
system.l2.ReadSharedReq_misses::total            3524                       # number of ReadSharedReq misses
system.l2.ReadSharedReq_miss_latency::.cpu.data    392409000                       # number of ReadSharedReq miss cycles
system.l2.ReadSharedReq_miss_latency::total    392409000                       # number of ReadSharedReq miss cycles
system.l2.ReadSharedReq_accesses::.cpu.data        16674                       # number of ReadSharedReq accesses(hits+misses)
system.l2.ReadSharedReq_accesses::total         16674                       # number of ReadSharedReq accesses(hits+misses)
system.l2.ReadSharedReq_miss_rate::.cpu.data     0.211347                       # miss rate for ReadSharedReq accesses
system.l2.ReadSharedReq_miss_rate::total     0.211347                       # miss rate for ReadSharedReq accesses
system.l2.ReadSharedReq_avg_miss_latency::.cpu.data 111353.291714                       # average ReadSharedReq miss latency
system.l2.ReadSharedReq_avg_miss_latency::total 111353.291714                       # average ReadSharedReq miss latency
system.l2.ReadSharedReq_mshr_hits::.cpu.data            1                       # number of ReadSharedReq MSHR hits
system.l2.ReadSharedReq_mshr_hits::total            1                       # number of ReadSharedReq MSHR hits
system.l2.ReadSharedReq_mshr_misses::.cpu.data         3523                       # number of ReadSharedReq MSHR misses
system.l2.ReadSharedReq_mshr_misses::total         3523                       # number of ReadSharedReq MSHR misses
system.l2.ReadSharedReq_mshr_miss_latency::.cpu.data    321862000                       # number of ReadSharedReq MSHR miss cycles
system.l2.ReadSharedReq_mshr_miss_latency::total    321862000                       # number of ReadSharedReq MSHR miss cycles
system.l2.ReadSharedReq_mshr_miss_rate::.cpu.data     0.211287                       # mshr miss rate for ReadSharedReq accesses
system.l2.ReadSharedReq_mshr_miss_rate::total     0.211287                       # mshr miss rate for ReadSharedReq accesses
system.l2.ReadSharedReq_avg_mshr_miss_latency::.cpu.data 91360.204371                       # average ReadSharedReq mshr miss latency
system.l2.ReadSharedReq_avg_mshr_miss_latency::total 91360.204371                       # average ReadSharedReq mshr miss latency
system.l2.power_state.pwrStateResidencyTicks::UNDEFINED 109525337000                       # Cumulative time (in ticks) in various power states
system.l2.tags.tagsinuse                 15552.887854                       # Cycle average of tags in use
system.l2.tags.total_refs                      111872                       # Total number of references to valid blocks.
system.l2.tags.sampled_refs                     42203                       # Sample count of references to valid blocks.
system.l2.tags.avg_refs                      2.650807                       # Average number of references to valid blocks.
system.l2.tags.warmup_cycle                     87000                       # Cycle when the warmup percentage was hit.
system.l2.tags.occ_blocks::.writebacks      54.672691                       # Average occupied blocks per requestor
system.l2.tags.occ_blocks::.cpu.inst        43.075213                       # Average occupied blocks per requestor
system.l2.tags.occ_blocks::.cpu.data     15455.139950                       # Average occupied blocks per requestor
system.l2.tags.occ_percent::.writebacks      0.003337                       # Average percentage of cache occupancy
system.l2.tags.occ_percent::.cpu.inst        0.002629                       # Average percentage of cache occupancy
system.l2.tags.occ_percent::.cpu.data        0.943307                       # Average percentage of cache occupancy
system.l2.tags.occ_percent::total            0.949273                       # Average percentage of cache occupancy
system.l2.tags.occ_task_id_blocks::1024         16384                       # Occupied blocks per task id
system.l2.tags.age_task_id_blocks_1024::0            3                       # Occupied blocks per task id
system.l2.tags.age_task_id_blocks_1024::1           20                       # Occupied blocks per task id
system.l2.tags.age_task_id_blocks_1024::2          220                       # Occupied blocks per task id
system.l2.tags.age_task_id_blocks_1024::3         2348                       # Occupied blocks per task id
system.l2.tags.age_task_id_blocks_1024::4        13793                       # Occupied blocks per task id
system.l2.tags.occ_task_id_percent::1024            1                       # Percentage of cache occupancy per task id
system.l2.tags.tag_accesses                    266005                       # Number of tag accesses
system.l2.tags.data_accesses                   266005                       # Number of data accesses
system.l2.tags.power_state.pwrStateResidencyTicks::UNDEFINED 109525337000                       # Cumulative time (in ticks) in various power states
system.mem_ctrls.avgPriority_.writebacks::samples     24996.00                       # Average QoS priority value for accepted requests
system.mem_ctrls.avgPriority_.cpu.inst::samples       508.00                       # Average QoS priority value for accepted requests
system.mem_ctrls.avgPriority_.cpu.data::samples     41453.00                       # Average QoS priority value for accepted requests
system.mem_ctrls.priorityMinLatency      0.000000018750                       # per QoS priority minimum request to response latency (s)
system.mem_ctrls.priorityMaxLatency      0.008624494500                       # per QoS priority maximum request to response latency (s)
system.mem_ctrls.numReadWriteTurnArounds         1390                       # Number of turnarounds from READ to WRITE
system.mem_ctrls.numWriteReadTurnArounds         1390                       # Number of turnarounds from WRITE to READ
system.mem_ctrls.numStayReadState              136821                       # Number of times bus staying in READ state
system.mem_ctrls.numStayWriteState              23612                       # Number of times bus staying in WRITE state
system.mem_ctrls.readReqs                       41972                       # Number of read requests accepted
system.mem_ctrls.writeReqs                      24996                       # Number of write requests accepted
system.mem_ctrls.readBursts                     41972                       # Number of controller read bursts, including those serviced by the write queue
system.mem_ctrls.writeBursts                    24996                       # Number of controller write bursts, including those merged in the write queue
system.mem_ctrls.servicedByWrQ                     11                       # Number of controller read bursts serviced by the write queue
system.mem_ctrls.mergedWrBursts                     0                       # Number of controller write bursts merged with an existing one
system.mem_ctrls.neitherReadNorWriteReqs            0                       # Number of requests that are neither read nor write
system.mem_ctrls.avgRdQLen                       1.03                       # Average read queue length when enqueuing
system.mem_ctrls.avgWrQLen                      22.25                       # Average write queue length when enqueuing
system.mem_ctrls.numRdRetry                         0                       # Number of times read queue was full causing retry
system.mem_ctrls.numWrRetry                         0                       # Number of times write queue was full causing retry
system.mem_ctrls.readPktSize::0                     0                       # Read request sizes (log2)
system.mem_ctrls.readPktSize::1                     0                       # Read request sizes (log2)
[...]
system.mem_ctrls.dram.bw_write::.writebacks     14606155                       # Write bandwidth from this memory (bytes/s)
system.mem_ctrls.dram.bw_write::total        14606155                       # Write bandwidth from this memory (bytes/s)
system.mem_ctrls.dram.bw_total::.writebacks     14606155                       # Total bandwidth to/from this memory (bytes/s)
system.mem_ctrls.dram.bw_total::.cpu.inst       296845                       # Total bandwidth to/from this memory (bytes/s)
system.mem_ctrls.dram.bw_total::.cpu.data     24229060                       # Total bandwidth to/from this memory (bytes/s)
system.mem_ctrls.dram.bw_total::total        39132059                       # Total bandwidth to/from this memory (bytes/s)
system.mem_ctrls.dram.readBursts                41961                       # Number of DRAM read bursts
system.mem_ctrls.dram.writeBursts               24966                       # Number of DRAM write bursts
system.mem_ctrls.dram.perBankRdBursts::0         2556                       # Per bank write bursts
system.mem_ctrls.dram.perBankRdBursts::1         2526                       # Per bank write bursts
system.mem_ctrls.dram.perBankRdBursts::2         2548                       # Per bank write bursts
system.mem_ctrls.dram.perBankRdBursts::3         2732                       # Per bank write bursts
system.mem_ctrls.dram.perBankRdBursts::4         2659                       # Per bank write bursts
system.mem_ctrls.dram.perBankRdBursts::5         2683                       # Per bank write bursts
system.mem_ctrls.dram.perBankRdBursts::6         2727                       # Per bank write bursts
system.mem_ctrls.dram.perBankRdBursts::7         2706                       # Per bank write bursts
system.mem_ctrls.dram.perBankRdBursts::8         2685                       # Per bank write bursts
system.mem_ctrls.dram.perBankRdBursts::9         2679                       # Per bank write bursts
system.mem_ctrls.dram.perBankRdBursts::10         2677                       # Per bank write bursts
system.mem_ctrls.dram.perBankRdBursts::11         2671                       # Per bank write bursts
system.mem_ctrls.dram.perBankRdBursts::12         2488                       # Per bank write bursts
system.mem_ctrls.dram.perBankRdBursts::13         2574                       # Per bank write bursts
system.mem_ctrls.dram.perBankRdBursts::14         2522                       # Per bank write bursts
system.mem_ctrls.dram.perBankRdBursts::15         2528                       # Per bank write bursts
system.mem_ctrls.dram.perBankWrBursts::0         1485                       # Per bank write bursts
system.mem_ctrls.dram.perBankWrBursts::1         1470                       # Per bank write bursts
system.mem_ctrls.dram.perBankWrBursts::2         1509                       # Per bank write bursts
system.mem_ctrls.dram.perBankWrBursts::3         1653                       # Per bank write bursts
system.mem_ctrls.dram.perBankWrBursts::4         1556                       # Per bank write bursts
system.mem_ctrls.dram.perBankWrBursts::5         1606                       # Per bank write bursts
system.mem_ctrls.dram.perBankWrBursts::6         1673                       # Per bank write bursts
system.mem_ctrls.dram.perBankWrBursts::7         1614                       # Per bank write bursts
system.mem_ctrls.dram.perBankWrBursts::8         1612                       # Per bank write bursts
system.mem_ctrls.dram.perBankWrBursts::9         1635                       # Per bank write bursts
system.mem_ctrls.dram.perBankWrBursts::10         1582                       # Per bank write bursts
system.mem_ctrls.dram.perBankWrBursts::11         1599                       # Per bank write bursts
system.mem_ctrls.dram.perBankWrBursts::12         1464                       # Per bank write bursts
system.mem_ctrls.dram.perBankWrBursts::13         1532                       # Per bank write bursts
system.mem_ctrls.dram.perBankWrBursts::14         1491                       # Per bank write bursts
system.mem_ctrls.dram.perBankWrBursts::15         1485                       # Per bank write bursts
system.mem_ctrls.dram.totQLat               768403500                       # Total ticks spent queuing
system.mem_ctrls.dram.totBusLat             209805000                       # Total ticks spent in databus transfers
system.mem_ctrls.dram.totMemAccLat         1555172250                       # Total ticks spent from burst creation until serviced by the DRAM
system.mem_ctrls.dram.avgQLat                18312.33                       # Average queueing delay per DRAM burst
system.mem_ctrls.dram.avgBusLat               5000.00                       # Average bus latency per DRAM burst
system.mem_ctrls.dram.avgMemAccLat           37062.33                       # Average memory access latency per DRAM burst
system.mem_ctrls.dram.readRowHits               21453                       # Number of row buffer hits during reads
system.mem_ctrls.dram.writeRowHits              19576                       # Number of row buffer hits during writes
system.mem_ctrls.dram.readRowHitRate            51.13                       # Row buffer hit rate for reads
system.mem_ctrls.dram.writeRowHitRate           78.41                       # Row buffer hit rate for writes
system.mem_ctrls.dram.bytesPerActivate::samples        25897                       # Bytes accessed per row activation
system.mem_ctrls.dram.bytesPerActivate::mean   165.396146                       # Bytes accessed per row activation
system.mem_ctrls.dram.bytesPerActivate::gmean   113.465000                       # Bytes accessed per row activation
system.mem_ctrls.dram.bytesPerActivate::stdev   198.624529                       # Bytes accessed per row activation
system.mem_ctrls.dram.bytesPerActivate::0-127        13447     51.92%     51.92% # Bytes accessed per row activation
system.mem_ctrls.dram.bytesPerActivate::128-255         8004     30.91%     82.83% # Bytes accessed per row activation
system.mem_ctrls.dram.bytesPerActivate::256-383         1432      5.53%     88.36% # Bytes accessed per row activation
system.mem_ctrls.dram.bytesPerActivate::384-511         1153      4.45%     92.81% # Bytes accessed per row activation
system.mem_ctrls.dram.bytesPerActivate::512-639          629      2.43%     95.24% # Bytes accessed per row activation
system.mem_ctrls.dram.bytesPerActivate::640-767          237      0.92%     96.16% # Bytes accessed per row activation
system.mem_ctrls.dram.bytesPerActivate::768-895          194      0.75%     96.91% # Bytes accessed per row activation
system.mem_ctrls.dram.bytesPerActivate::896-1023          236      0.91%     97.82% # Bytes accessed per row activation
system.mem_ctrls.dram.bytesPerActivate::1024-1151          565      2.18%    100.00% # Bytes accessed per row activation
system.mem_ctrls.dram.bytesPerActivate::total        25897                       # Bytes accessed per row activation
system.mem_ctrls.dram.bytesRead               2685504                       # Total number of bytes read from DRAM
system.mem_ctrls.dram.bytesWritten            1597824                       # Total number of bytes written to DRAM
system.mem_ctrls.dram.avgRdBW               24.519477                       # Average DRAM read bandwidth in MiBytes/s
system.mem_ctrls.dram.avgWrBW               14.588624                       # Average DRAM write bandwidth in MiBytes/s
system.mem_ctrls.dram.peakBW                 12800.00                       # Theoretical peak bandwidth in MiByte/s
system.mem_ctrls.dram.busUtil                    0.31                       # Data bus utilization in percentage
system.mem_ctrls.dram.busUtilRead                0.19                       # Data bus utilization in percentage for reads
system.mem_ctrls.dram.busUtilWrite               0.11                       # Data bus utilization in percentage for writes
system.mem_ctrls.dram.pageHitRate               61.30                       # Row buffer hit rate, read and write combined
system.mem_ctrls.dram.power_state.pwrStateResidencyTicks::UNDEFINED 109525337000                       # Cumulative time (in ticks) in various power states
system.mem_ctrls.dram.rank0.actEnergy        93791040                       # Energy for activate commands per rank (pJ)
system.mem_ctrls.dram.rank0.preEnergy        49851120                       # Energy for precharge commands per rank (pJ)
system.mem_ctrls.dram.rank0.readEnergy      150918180                       # Energy for read commands per rank (pJ)
system.mem_ctrls.dram.rank0.writeEnergy      65594520                       # Energy for write commands per rank (pJ)
system.mem_ctrls.dram.rank0.refreshEnergy 8645526240.000002                       # Energy for refresh commands per rank (pJ)
system.mem_ctrls.dram.rank0.actBackEnergy  22340890080                       # Energy for active background per rank (pJ)
system.mem_ctrls.dram.rank0.preBackEnergy  23244348480                       # Energy for precharge background per rank (pJ)
system.mem_ctrls.dram.rank0.actPowerDownEnergy            0                       # Energy for active power-down per rank (pJ)
system.mem_ctrls.dram.rank0.prePowerDownEnergy            0                       # Energy for precharge power-down per rank (pJ)
system.mem_ctrls.dram.rank0.selfRefreshEnergy            0                       # Energy for self refresh per rank (pJ)
system.mem_ctrls.dram.rank0.totalEnergy   54590919660                       # Total energy per rank (pJ)
system.mem_ctrls.dram.rank0.averagePower   498.431880                       # Core power per rank (mW)
system.mem_ctrls.dram.rank0.totalIdleTime            0                       # Total Idle time Per DRAM Rank
system.mem_ctrls.dram.rank0.pwrStateTime::IDLE  60214294500                       # Time in different power states
system.mem_ctrls.dram.rank0.pwrStateTime::REF   3657160000                       # Time in different power states
system.mem_ctrls.dram.rank0.pwrStateTime::SREF            0                       # Time in different power states
system.mem_ctrls.dram.rank0.pwrStateTime::PRE_PDN            0                       # Time in different power states
system.mem_ctrls.dram.rank0.pwrStateTime::ACT  45653882500                       # Time in different power states
system.mem_ctrls.dram.rank0.pwrStateTime::ACT_PDN            0                       # Time in different power states
system.mem_ctrls.dram.rank1.actEnergy        91120680                       # Energy for activate commands per rank (pJ)
system.mem_ctrls.dram.rank1.preEnergy        48427995                       # Energy for precharge commands per rank (pJ)
system.mem_ctrls.dram.rank1.readEnergy      148683360                       # Energy for read commands per rank (pJ)
system.mem_ctrls.dram.rank1.writeEnergy      64728000                       # Energy for write commands per rank (pJ)
system.mem_ctrls.dram.rank1.refreshEnergy 8645526240.000002                       # Energy for refresh commands per rank (pJ)
system.mem_ctrls.dram.rank1.actBackEnergy  22222245150                       # Energy for active background per rank (pJ)
system.mem_ctrls.dram.rank1.preBackEnergy  23344260000                       # Energy for precharge background per rank (pJ)
system.mem_ctrls.dram.rank1.actPowerDownEnergy            0                       # Energy for active power-down per rank (pJ)
system.mem_ctrls.dram.rank1.prePowerDownEnergy            0                       # Energy for precharge power-down per rank (pJ)
system.mem_ctrls.dram.rank1.selfRefreshEnergy            0                       # Energy for self refresh per rank (pJ)
system.mem_ctrls.dram.rank1.totalEnergy   54564991425                       # Total energy per rank (pJ)
system.mem_ctrls.dram.rank1.averagePower   498.195148                       # Core power per rank (mW)
system.mem_ctrls.dram.rank1.totalIdleTime            0                       # Total Idle time Per DRAM Rank
system.mem_ctrls.dram.rank1.pwrStateTime::IDLE  60474313500                       # Time in different power states
system.mem_ctrls.dram.rank1.pwrStateTime::REF   3657160000                       # Time in different power states
system.mem_ctrls.dram.rank1.pwrStateTime::SREF            0                       # Time in different power states
system.mem_ctrls.dram.rank1.pwrStateTime::PRE_PDN            0                       # Time in different power states
system.mem_ctrls.dram.rank1.pwrStateTime::ACT  45393863500                       # Time in different power states
system.mem_ctrls.dram.rank1.pwrStateTime::ACT_PDN            0                       # Time in different power states
system.mem_ctrls.power_state.pwrStateResidencyTicks::UNDEFINED 109525337000                       # Cumulative time (in ticks) in various power states
system.membus.trans_dist::ReadResp               4031                       # Transaction distribution
system.membus.trans_dist::WritebackDirty        24996                       # Transaction distribution
system.membus.trans_dist::CleanEvict              112                       # Transaction distribution
system.membus.trans_dist::ReadExReq             37941                       # Transaction distribution
system.membus.trans_dist::ReadExResp            37941                       # Transaction distribution
system.membus.trans_dist::ReadSharedReq          4031                       # Transaction distribution
system.membus.pkt_count_system.l2.mem_side_port::system.mem_ctrls.port       109052                       # Packet count per connected requestor and responder (bytes)
system.membus.pkt_count::total                 109052                       # Packet count per connected requestor and responder (bytes)
system.membus.pkt_size_system.l2.mem_side_port::system.mem_ctrls.port      4285952                       # Cumulative packet size per connected requestor and responder (bytes)
system.membus.pkt_size::total                 4285952                       # Cumulative packet size per connected requestor and responder (bytes)
system.membus.snoops                                0                       # Total snoops (count)
system.membus.snoopTraffic                          0                       # Total snoop traffic (bytes)
system.membus.snoop_fanout::samples             41972                       # Request fanout histogram
system.membus.snoop_fanout::mean                    0                       # Request fanout histogram
system.membus.snoop_fanout::stdev                   0                       # Request fanout histogram
system.membus.snoop_fanout::underflows              0      0.00%      0.00% # Request fanout histogram
system.membus.snoop_fanout::0                   41972    100.00%    100.00% # Request fanout histogram
system.membus.snoop_fanout::1                       0      0.00%    100.00% # Request fanout histogram
system.membus.snoop_fanout::overflows               0      0.00%    100.00% # Request fanout histogram
system.membus.snoop_fanout::min_value               0                       # Request fanout histogram
system.membus.snoop_fanout::max_value               0                       # Request fanout histogram
system.membus.snoop_fanout::total               41972                       # Request fanout histogram
system.membus.power_state.pwrStateResidencyTicks::UNDEFINED 109525337000                       # Cumulative time (in ticks) in various power states
system.membus.reqLayer0.occupancy           167064000                       # Layer occupancy (ticks)
system.membus.reqLayer0.utilization               0.2                       # Layer utilization (%)
system.membus.respLayer1.occupancy          225340750                       # Layer occupancy (ticks)
system.membus.respLayer1.utilization              0.2                       # Layer utilization (%)
system.tol2bus.trans_dist::ReadResp             17455                       # Transaction distribution
system.tol2bus.trans_dist::WritebackDirty        75602                       # Transaction distribution
system.tol2bus.trans_dist::WritebackClean          297                       # Transaction distribution
system.tol2bus.trans_dist::CleanEvict            4655                       # Transaction distribution
system.tol2bus.trans_dist::ReadExReq            39812                       # Transaction distribution
system.tol2bus.trans_dist::ReadExResp           39812                       # Transaction distribution
system.tol2bus.trans_dist::ReadCleanReq           781                       # Transaction distribution
system.tol2bus.trans_dist::ReadSharedReq        16674                       # Transaction distribution
system.tol2bus.pkt_count_system.cpu.icache.mem_side_port::system.l2.cpu_side_port         1859                       # Packet count per connected requestor and responder (bytes)
system.tol2bus.pkt_count_system.cpu.dcache.mem_side_port::system.l2.cpu_side_port       167410                       # Packet count per connected requestor and responder (bytes)
system.tol2bus.pkt_count::total                169269                       # Packet count per connected requestor and responder (bytes)
system.tol2bus.pkt_size_system.cpu.icache.mem_side_port::system.l2.cpu_side_port        68992                       # Cumulative packet size per connected requestor and responder (bytes)
system.tol2bus.pkt_size_system.cpu.dcache.mem_side_port::system.l2.cpu_side_port      6853888                       # Cumulative packet size per connected requestor and responder (bytes)
system.tol2bus.pkt_size::total                6922880                       # Cumulative packet size per connected requestor and responder (bytes)
system.tol2bus.snoops                           25819                       # Total snoops (count)
system.tol2bus.snoopTraffic                   1599744                       # Total snoop traffic (bytes)
system.tol2bus.snoop_fanout::samples            83086                       # Request fanout histogram
system.tol2bus.snoop_fanout::mean            0.010134                       # Request fanout histogram
system.tol2bus.snoop_fanout::stdev           0.100157                       # Request fanout histogram
system.tol2bus.snoop_fanout::underflows             0      0.00%      0.00% # Request fanout histogram
system.tol2bus.snoop_fanout::0                  82244     98.99%     98.99% # Request fanout histogram
system.tol2bus.snoop_fanout::1                    842      1.01%    100.00% # Request fanout histogram
system.tol2bus.snoop_fanout::2                      0      0.00%    100.00% # Request fanout histogram
system.tol2bus.snoop_fanout::overflows              0      0.00%    100.00% # Request fanout histogram
system.tol2bus.snoop_fanout::min_value              0                       # Request fanout histogram
system.tol2bus.snoop_fanout::max_value              1                       # Request fanout histogram
system.tol2bus.snoop_fanout::total              83086                       # Request fanout histogram
system.tol2bus.power_state.pwrStateResidencyTicks::UNDEFINED 109525337000                       # Cumulative time (in ticks) in various power states
system.tol2bus.reqLayer0.occupancy          213808000                       # Layer occupancy (ticks)
system.tol2bus.reqLayer0.utilization              0.2                       # Layer utilization (%)
system.tol2bus.respLayer0.occupancy           2343000                       # Layer occupancy (ticks)
system.tol2bus.respLayer0.utilization             0.0                       # Layer utilization (%)
system.tol2bus.respLayer1.occupancy         169458999                       # Layer occupancy (ticks)
system.tol2bus.respLayer1.utilization             0.2                       # Layer utilization (%)
system.voltage_domain.voltage                       1                       # Voltage in Volts

---------- End Simulation Statistics   ----------
