
---------- Begin Simulation Statistics ----------
final_tick                               162001515000                       # Number of ticks from beginning of simulation (restored from checkpoints and never reset)
host_inst_rate                                 128474                       # Simulator instruction rate (inst/s)
host_mem_usage                                 664256                       # Number of bytes of host memory used
host_op_rate                                   128727                       # Simulator op (including micro ops) rate (op/s)
host_seconds                                   778.37                       # Real time elapsed on the host
host_tick_rate                              208130369                       # Simulator tick rate (ticks/s)
sim_freq                                 1000000000000                       # Frequency of simulated ticks
sim_insts                                   100000000                       # Number of instructions simulated
sim_ops                                     100196363                       # Number of ops (including micro ops) simulated
sim_seconds                                  0.162002                       # Number of seconds simulated
sim_ticks                                162001515000                       # Number of ticks simulated
system.cpu.committedInsts                   100000000                       # Number of instructions committed
system.cpu.committedOps                     100196363                       # Number of ops (including micro ops) committed
system.cpu.cpi                               1.620015                       # CPI: cycles per instruction
system.cpu.discardedOps                        191292                       # Number of ops (including micro ops) which were discarded before commit
system.cpu.idleCycles                        29689021                       # Total number of cycles that the object has spent stopped
system.cpu.ipc                               0.617278                       # IPC: instructions per cycle
system.cpu.numCycles                        162001515                       # number of cpu cycles simulated
system.cpu.numFetchSuspends                         0                       # Number of times Execute suspended instruction fetching
system.cpu.numWorkItemsCompleted                    0                       # number of work items this cpu completed
system.cpu.numWorkItemsStarted                      0                       # number of work items this cpu started
system.cpu.op_class_0::No_OpClass                   0      0.00%      0.00% # Class of committed instruction
system.cpu.op_class_0::IntAlu                46526151     46.43%     46.43% # Class of committed instruction
system.cpu.op_class_0::IntMult                  20720      0.02%     46.46% # Class of committed instruction
system.cpu.op_class_0::IntDiv                       0      0.00%     46.46% # Class of committed instruction
system.cpu.op_class_0::FloatAdd                     0      0.00%     46.46% # Class of committed instruction
system.cpu.op_class_0::FloatCmp                     0      0.00%     46.46% # Class of committed instruction
system.cpu.op_class_0::FloatCvt                     0      0.00%     46.46% # Class of committed instruction
system.cpu.op_class_0::FloatMult                    0      0.00%     46.46% # Class of committed instruction
system.cpu.op_class_0::FloatMultAcc                 0      0.00%     46.46% # Class of committed instruction
system.cpu.op_class_0::FloatDiv                     0      0.00%     46.46% # Class of committed instruction
system.cpu.op_class_0::FloatMisc                    0      0.00%     46.46% # Class of committed instruction
system.cpu.op_class_0::FloatSqrt                    0      0.00%     46.46% # Class of committed instruction
system.cpu.op_class_0::SimdAdd                      0      0.00%     46.46% # Class of committed instruction
system.cpu.op_class_0::SimdAddAcc                   0      0.00%     46.46% # Class of committed instruction
system.cpu.op_class_0::SimdAlu                      0      0.00%     46.46% # Class of committed instruction
system.cpu.op_class_0::SimdCmp                      0      0.00%     46.46% # Class of committed instruction
system.cpu.op_class_0::SimdCvt                      0      0.00%     46.46% # Class of committed instruction
system.cpu.op_class_0::SimdMisc                     0      0.00%     46.46% # Class of committed instruction
system.cpu.op_class_0::SimdMult                     0      0.00%     46.46% # Class of committed instruction
system.cpu.op_class_0::SimdMultAcc                  0      0.00%     46.46% # Class of committed instruction
system.cpu.op_class_0::SimdShift                    0      0.00%     46.46% # Class of committed instruction
system.cpu.op_class_0::SimdShiftAcc                 0      0.00%     46.46% # Class of committed instruction
system.cpu.op_class_0::SimdDiv                      0      0.00%     46.46% # Class of committed instruction
system.cpu.op_class_0::SimdSqrt                     0      0.00%     46.46% # Class of committed instruction
system.cpu.op_class_0::SimdFloatAdd                 0      0.00%     46.46% # Class of committed instruction
system.cpu.op_class_0::SimdFloatAlu                 0      0.00%     46.46% # Class of committed instruction
system.cpu.op_class_0::SimdFloatCmp                 0      0.00%     46.46% # Class of committed instruction
system.cpu.op_class_0::SimdFloatCvt                 0      0.00%     46.46% # Class of committed instruction
system.cpu.op_class_0::SimdFloatDiv                 0      0.00%     46.46% # Class of committed instruction
system.cpu.op_class_0::SimdFloatMisc               18      0.00%     46.46% # Class of committed instruction
system.cpu.op_class_0::SimdFloatMult                0      0.00%     46.46% # Class of committed instruction
system.cpu.op_class_0::SimdFloatMultAcc             0      0.00%     46.46% # Class of committed instruction
system.cpu.op_class_0::SimdFloatSqrt                0      0.00%     46.46% # Class of committed instruction
system.cpu.op_class_0::SimdReduceAdd                0      0.00%     46.46% # Class of committed instruction
system.cpu.op_class_0::SimdReduceAlu                0      0.00%     46.46% # Class of committed instruction
system.cpu.op_class_0::SimdReduceCmp                0      0.00%     46.46% # Class of committed instruction
system.cpu.op_class_0::SimdFloatReduceAdd            0      0.00%     46.46% # Class of committed instruction
system.cpu.op_class_0::SimdFloatReduceCmp            0      0.00%     46.46% # Class of committed instruction
system.cpu.op_class_0::SimdAes                      0      0.00%     46.46% # Class of committed instruction
system.cpu.op_class_0::SimdAesMix                   0      0.00%     46.46% # Class of committed instruction
system.cpu.op_class_0::SimdSha1Hash                 0      0.00%     46.46% # Class of committed instruction
system.cpu.op_class_0::SimdSha1Hash2                0      0.00%     46.46% # Class of committed instruction
system.cpu.op_class_0::SimdSha256Hash               0      0.00%     46.46% # Class of committed instruction
system.cpu.op_class_0::SimdSha256Hash2              0      0.00%     46.46% # Class of committed instruction
system.cpu.op_class_0::SimdShaSigma2                0      0.00%     46.46% # Class of committed instruction
system.cpu.op_class_0::SimdShaSigma3                0      0.00%     46.46% # Class of committed instruction
system.cpu.op_class_0::SimdPredAlu                  0      0.00%     46.46% # Class of committed instruction
system.cpu.op_class_0::MemRead               42691081     42.61%     89.06% # Class of committed instruction
system.cpu.op_class_0::MemWrite              10958393     10.94%    100.00% # Class of committed instruction
system.cpu.op_class_0::FloatMemRead                 0      0.00%    100.00% # Class of committed instruction
system.cpu.op_class_0::FloatMemWrite                0      0.00%    100.00% # Class of committed instruction
system.cpu.op_class_0::IprAccess                    0      0.00%    100.00% # Class of committed instruction
system.cpu.op_class_0::InstPrefetch                 0      0.00%    100.00% # Class of committed instruction
system.cpu.op_class_0::total                100196363                       # Class of committed instruction
system.cpu.tickCycles                       132312494                       # Number of cycles that the object actually ticked
system.cpu.workload.numSyscalls                    84                       # Number of system calls
system.membus.snoop_filter.hit_multi_requests            0                       # Number of requests hitting in the snoop filter with multiple (>1) holders of the requested data.
system.membus.snoop_filter.hit_multi_snoops            0                       # Number of snoops hitting in the snoop filter with multiple (>1) holders of the requested data.
system.membus.snoop_filter.hit_single_requests       163671                       # Number of requests hitting in the snoop filter with a single holder of the requested data.
system.membus.snoop_filter.hit_single_snoops            0                       # Number of snoops hitting in the snoop filter with a single holder of the requested data.
system.membus.snoop_filter.tot_requests        211750                       # Total number of requests made to the snoop filter.
system.membus.snoop_filter.tot_snoops               0                       # Total number of snoops made to the snoop filter.
system.tol2bus.snoop_filter.hit_multi_requests          219                       # Number of requests hitting in the snoop filter with multiple (>1) holders of the requested data.
system.tol2bus.snoop_filter.hit_multi_snoops            2                       # Number of snoops hitting in the snoop filter with multiple (>1) holders of the requested data.
system.tol2bus.snoop_filter.hit_single_requests       634027                       # Number of requests hitting in the snoop filter with a single holder of the requested data.
system.tol2bus.snoop_filter.hit_single_snoops          154                       # Number of snoops hitting in the snoop filter with a single holder of the requested data.
system.tol2bus.snoop_filter.tot_requests      1267592                       # Total number of requests made to the snoop filter.
system.tol2bus.snoop_filter.tot_snoops            156                       # Total number of snoops made to the snoop filter.
system.clk_domain.clock                          1000                       # Clock period in ticks
system.cpu.branchPred.lookups                 4487211                       # Number of BP lookups
system.cpu.branchPred.condPredicted           3735924                       # Number of conditional branches predicted
system.cpu.branchPred.condIncorrect             80992                       # Number of conditional branches incorrect
system.cpu.branchPred.BTBLookups              2105117                       # Number of BTB lookups
system.cpu.branchPred.BTBHits                 2102975                       # Number of BTB hits
system.cpu.branchPred.BTBHitPct             99.898248                       # BTB Hit Percentage
system.cpu.branchPred.RASUsed                   65406                       # Number of times the RAS was used to get a target.
system.cpu.branchPred.RASIncorrect                 14                       # Number of incorrect RAS predictions.
system.cpu.branchPred.indirectLookups             702                       # Number of indirect predictor lookups.
system.cpu.branchPred.indirectHits                289                       # Number of indirect target hits.
system.cpu.branchPred.indirectMisses              413                       # Number of indirect misses.
system.cpu.branchPred.indirectMispredicted          166                       # Number of mispredicted indirect branches.
system.cpu.dcache.demand_hits::.cpu.data     51397650                       # number of demand (read+write) hits
system.cpu.dcache.demand_hits::total         51397650                       # number of demand (read+write) hits
system.cpu.dcache.overall_hits::.cpu.data     51404130                       # number of overall hits
system.cpu.dcache.overall_hits::total        51404130                       # number of overall hits
system.cpu.dcache.demand_misses::.cpu.data       637725                       # number of demand (read+write) misses
system.cpu.dcache.demand_misses::total         637725                       # number of demand (read+write) misses
system.cpu.dcache.overall_misses::.cpu.data       639666                       # number of overall misses
system.cpu.dcache.overall_misses::total        639666                       # number of overall misses
system.cpu.dcache.demand_miss_latency::.cpu.data  36130513000                       # number of demand (read+write) miss cycles
system.cpu.dcache.demand_miss_latency::total  36130513000                       # number of demand (read+write) miss cycles
system.cpu.dcache.overall_miss_latency::.cpu.data  36130513000                       # number of overall miss cycles
system.cpu.dcache.overall_miss_latency::total  36130513000                       # number of overall miss cycles
system.cpu.dcache.demand_accesses::.cpu.data     52035375                       # number of demand (read+write) accesses
system.cpu.dcache.demand_accesses::total     52035375                       # number of demand (read+write) accesses
system.cpu.dcache.overall_accesses::.cpu.data     52043796                       # number of overall (read+write) accesses
system.cpu.dcache.overall_accesses::total     52043796                       # number of overall (read+write) accesses
system.cpu.dcache.demand_miss_rate::.cpu.data     0.012256                       # miss rate for demand accesses
system.cpu.dcache.demand_miss_rate::total     0.012256                       # miss rate for demand accesses
system.cpu.dcache.overall_miss_rate::.cpu.data     0.012291                       # miss rate for overall accesses
system.cpu.dcache.overall_miss_rate::total     0.012291                       # miss rate for overall accesses
system.cpu.dcache.demand_avg_miss_latency::.cpu.data 56655.318515                       # average overall miss latency
system.cpu.dcache.demand_avg_miss_latency::total 56655.318515                       # average overall miss latency
system.cpu.dcache.overall_avg_miss_latency::.cpu.data 56483.403839                       # average overall miss latency
system.cpu.dcache.overall_avg_miss_latency::total 56483.403839                       # average overall miss latency
system.cpu.dcache.blocked_cycles::no_mshrs            0                       # number of cycles access was blocked
system.cpu.dcache.blocked_cycles::no_targets            0                       # number of cycles access was blocked
system.cpu.dcache.blocked::no_mshrs                 0                       # number of cycles access was blocked
system.cpu.dcache.blocked::no_targets               0                       # number of cycles access was blocked
system.cpu.dcache.avg_blocked_cycles::no_mshrs          nan                       # average number of cycles each access was blocked
system.cpu.dcache.avg_blocked_cycles::no_targets          nan                       # average number of cycles each access was blocked
system.cpu.dcache.writebacks::.writebacks       619797                       # number of writebacks
system.cpu.dcache.writebacks::total            619797                       # number of writebacks
system.cpu.dcache.demand_mshr_hits::.cpu.data         4794                       # number of demand (read+write) MSHR hits
system.cpu.dcache.demand_mshr_hits::total         4794                       # number of demand (read+write) MSHR hits
system.cpu.dcache.overall_mshr_hits::.cpu.data         4794                       # number of overall MSHR hits
system.cpu.dcache.overall_mshr_hits::total         4794                       # number of overall MSHR hits
system.cpu.dcache.demand_mshr_misses::.cpu.data       632931                       # number of demand (read+write) MSHR misses
system.cpu.dcache.demand_mshr_misses::total       632931                       # number of demand (read+write) MSHR misses
system.cpu.dcache.overall_mshr_misses::.cpu.data       633427                       # number of overall MSHR misses
system.cpu.dcache.overall_mshr_misses::total       633427                       # number of overall MSHR misses
system.cpu.dcache.demand_mshr_miss_latency::.cpu.data  33983690000                       # number of demand (read+write) MSHR miss cycles
system.cpu.dcache.demand_mshr_miss_latency::total  33983690000                       # number of demand (read+write) MSHR miss cycles
system.cpu.dcache.overall_mshr_miss_latency::.cpu.data  34077121000                       # number of overall MSHR miss cycles
system.cpu.dcache.overall_mshr_miss_latency::total  34077121000                       # number of overall MSHR miss cycles
system.cpu.dcache.demand_mshr_miss_rate::.cpu.data     0.012163                       # mshr miss rate for demand accesses
system.cpu.dcache.demand_mshr_miss_rate::total     0.012163                       # mshr miss rate for demand accesses
system.cpu.dcache.overall_mshr_miss_rate::.cpu.data     0.012171                       # mshr miss rate for overall accesses
system.cpu.dcache.overall_mshr_miss_rate::total     0.012171                       # mshr miss rate for overall accesses
system.cpu.dcache.demand_avg_mshr_miss_latency::.cpu.data 53692.566804                       # average overall mshr miss latency
system.cpu.dcache.demand_avg_mshr_miss_latency::total 53692.566804                       # average overall mshr miss latency
system.cpu.dcache.overall_avg_mshr_miss_latency::.cpu.data 53798.024082                       # average overall mshr miss latency
system.cpu.dcache.overall_avg_mshr_miss_latency::total 53798.024082                       # average overall mshr miss latency
system.cpu.dcache.replacements                 633299                       # number of replacements
system.cpu.dcache.ReadReq_hits::.cpu.data     40801553                       # number of ReadReq hits
system.cpu.dcache.ReadReq_hits::total        40801553                       # number of ReadReq hits
system.cpu.dcache.ReadReq_misses::.cpu.data       284580                       # number of ReadReq misses
system.cpu.dcache.ReadReq_misses::total        284580                       # number of ReadReq misses
system.cpu.dcache.ReadReq_miss_latency::.cpu.data  12108518000                       # number of ReadReq miss cycles
system.cpu.dcache.ReadReq_miss_latency::total  12108518000                       # number of ReadReq miss cycles
system.cpu.dcache.ReadReq_accesses::.cpu.data     41086133                       # number of ReadReq accesses(hits+misses)
system.cpu.dcache.ReadReq_accesses::total     41086133                       # number of ReadReq accesses(hits+misses)
system.cpu.dcache.ReadReq_miss_rate::.cpu.data     0.006926                       # miss rate for ReadReq accesses
system.cpu.dcache.ReadReq_miss_rate::total     0.006926                       # miss rate for ReadReq accesses
system.cpu.dcache.ReadReq_avg_miss_latency::.cpu.data 42548.731464                       # average ReadReq miss latency
system.cpu.dcache.ReadReq_avg_miss_latency::total 42548.731464                       # average ReadReq miss latency
system.cpu.dcache.ReadReq_mshr_hits::.cpu.data          584                       # number of ReadReq MSHR hits
system.cpu.dcache.ReadReq_mshr_hits::total          584                       # number of ReadReq MSHR hits
system.cpu.dcache.ReadReq_mshr_misses::.cpu.data       283996                       # number of ReadReq MSHR misses
system.cpu.dcache.ReadReq_mshr_misses::total       283996                       # number of ReadReq MSHR misses
system.cpu.dcache.ReadReq_mshr_miss_latency::.cpu.data  11446824000                       # number of ReadReq MSHR miss cycles
system.cpu.dcache.ReadReq_mshr_miss_latency::total  11446824000                       # number of ReadReq MSHR miss cycles
system.cpu.dcache.ReadReq_mshr_miss_rate::.cpu.data     0.006912                       # mshr miss rate for ReadReq accesses
system.cpu.dcache.ReadReq_mshr_miss_rate::total     0.006912                       # mshr miss rate for ReadReq accesses
system.cpu.dcache.ReadReq_avg_mshr_miss_latency::.cpu.data 40306.286004                       # average ReadReq mshr miss latency
system.cpu.dcache.ReadReq_avg_mshr_miss_latency::total 40306.286004                       # average ReadReq mshr miss latency
system.cpu.dcache.WriteReq_hits::.cpu.data     10596097                       # number of WriteReq hits
system.cpu.dcache.WriteReq_hits::total       10596097                       # number of WriteReq hits
system.cpu.dcache.WriteReq_misses::.cpu.data       353145                       # number of WriteReq misses
system.cpu.dcache.WriteReq_misses::total       353145                       # number of WriteReq misses
system.cpu.dcache.WriteReq_miss_latency::.cpu.data  24021995000                       # number of WriteReq miss cycles
system.cpu.dcache.WriteReq_miss_latency::total  24021995000                       # number of WriteReq miss cycles
system.cpu.dcache.WriteReq_accesses::.cpu.data     10949242                       # number of WriteReq accesses(hits+misses)
system.cpu.dcache.WriteReq_accesses::total     10949242                       # number of WriteReq accesses(hits+misses)
system.cpu.dcache.WriteReq_miss_rate::.cpu.data     0.032253                       # miss rate for WriteReq accesses
system.cpu.dcache.WriteReq_miss_rate::total     0.032253                       # miss rate for WriteReq accesses
system.cpu.dcache.WriteReq_avg_miss_latency::.cpu.data 68023.035863                       # average WriteReq miss latency
system.cpu.dcache.WriteReq_avg_miss_latency::total 68023.035863                       # average WriteReq miss latency
system.cpu.dcache.WriteReq_mshr_hits::.cpu.data         4210                       # number of WriteReq MSHR hits
system.cpu.dcache.WriteReq_mshr_hits::total         4210                       # number of WriteReq MSHR hits
system.cpu.dcache.WriteReq_mshr_misses::.cpu.data       348935                       # number of WriteReq MSHR misses
system.cpu.dcache.WriteReq_mshr_misses::total       348935                       # number of WriteReq MSHR misses
system.cpu.dcache.WriteReq_mshr_miss_latency::.cpu.data  22536866000                       # number of WriteReq MSHR miss cycles
system.cpu.dcache.WriteReq_mshr_miss_latency::total  22536866000                       # number of WriteReq MSHR miss cycles
system.cpu.dcache.WriteReq_mshr_miss_rate::.cpu.data     0.031868                       # mshr miss rate for WriteReq accesses
system.cpu.dcache.WriteReq_mshr_miss_rate::total     0.031868                       # mshr miss rate for WriteReq accesses
system.cpu.dcache.WriteReq_avg_mshr_miss_latency::.cpu.data 64587.576483                       # average WriteReq mshr miss latency
system.cpu.dcache.WriteReq_avg_mshr_miss_latency::total 64587.576483                       # average WriteReq mshr miss latency
system.cpu.dcache.SoftPFReq_hits::.cpu.data         6480                       # number of SoftPFReq hits
system.cpu.dcache.SoftPFReq_hits::total          6480                       # number of SoftPFReq hits
system.cpu.dcache.SoftPFReq_misses::.cpu.data         1941                       # number of SoftPFReq misses
system.cpu.dcache.SoftPFReq_misses::total         1941                       # number of SoftPFReq misses
system.cpu.dcache.SoftPFReq_accesses::.cpu.data         8421                       # number of SoftPFReq accesses(hits+misses)
system.cpu.dcache.SoftPFReq_accesses::total         8421                       # number of SoftPFReq accesses(hits+misses)
system.cpu.dcache.SoftPFReq_miss_rate::.cpu.data     0.230495                       # miss rate for SoftPFReq accesses
system.cpu.dcache.SoftPFReq_miss_rate::total     0.230495                       # miss rate for SoftPFReq accesses
system.cpu.dcache.SoftPFReq_mshr_misses::.cpu.data          496                       # number of SoftPFReq MSHR misses
system.cpu.dcache.SoftPFReq_mshr_misses::total          496                       # number of SoftPFReq MSHR misses
system.cpu.dcache.SoftPFReq_mshr_miss_latency::.cpu.data     93431000                       # number of SoftPFReq MSHR miss cycles
system.cpu.dcache.SoftPFReq_mshr_miss_latency::total     93431000                       # number of SoftPFReq MSHR miss cycles
system.cpu.dcache.SoftPFReq_mshr_miss_rate::.cpu.data     0.058900                       # mshr miss rate for SoftPFReq accesses
system.cpu.dcache.SoftPFReq_mshr_miss_rate::total     0.058900                       # mshr miss rate for SoftPFReq accesses
system.cpu.dcache.SoftPFReq_avg_mshr_miss_latency::.cpu.data 188368.951613                       # average SoftPFReq mshr miss latency
system.cpu.dcache.SoftPFReq_avg_mshr_miss_latency::total 188368.951613                       # average SoftPFReq mshr miss latency
system.cpu.dcache.LoadLockedReq_hits::.cpu.data           38                       # number of LoadLockedReq hits
system.cpu.dcache.LoadLockedReq_hits::total           38                       # number of LoadLockedReq hits
system.cpu.dcache.LoadLockedReq_accesses::.cpu.data           38                       # number of LoadLockedReq accesses(hits+misses)
system.cpu.dcache.LoadLockedReq_accesses::total           38                       # number of LoadLockedReq accesses(hits+misses)
system.cpu.dcache.StoreCondReq_hits::.cpu.data           38                       # number of StoreCondReq hits
system.cpu.dcache.StoreCondReq_hits::total           38                       # number of StoreCondReq hits
system.cpu.dcache.StoreCondReq_accesses::.cpu.data           38                       # number of StoreCondReq accesses(hits+misses)
system.cpu.dcache.StoreCondReq_accesses::total           38                       # number of StoreCondReq accesses(hits+misses)
system.cpu.dcache.power_state.pwrStateResidencyTicks::UNDEFINED 162001515000                       # Cumulative time (in ticks) in various power states
system.cpu.dcache.tags.tagsinuse           127.974648                       # Cycle average of tags in use
system.cpu.dcache.tags.total_refs            52037633                       # Total number of references to valid blocks.
system.cpu.dcache.tags.sampled_refs            633427                       # Sample count of references to valid blocks.
system.cpu.dcache.tags.avg_refs             82.152534                       # Average number of references to valid blocks.
system.cpu.dcache.tags.warmup_cycle            449000                       # Cycle when the warmup percentage was hit.
system.cpu.dcache.tags.occ_blocks::.cpu.data   127.974648                       # Average occupied blocks per requestor
system.cpu.dcache.tags.occ_percent::.cpu.data     0.999802                       # Average percentage of cache occupancy
system.cpu.dcache.tags.occ_percent::total     0.999802                       # Average percentage of cache occupancy
system.cpu.dcache.tags.occ_task_id_blocks::1024          128                       # Occupied blocks per task id
system.cpu.dcache.tags.age_task_id_blocks_1024::0          127                       # Occupied blocks per task id
system.cpu.dcache.tags.age_task_id_blocks_1024::3            1                       # Occupied blocks per task id
system.cpu.dcache.tags.occ_task_id_percent::1024            1                       # Percentage of cache occupancy per task id
system.cpu.dcache.tags.tag_accesses         416984403                       # Number of tag accesses
system.cpu.dcache.tags.data_accesses        416984403                       # Number of data accesses
system.cpu.dcache.tags.power_state.pwrStateResidencyTicks::UNDEFINED 162001515000                       # Cumulative time (in ticks) in various power states
system.cpu.dtb.instHits                             0                       # ITB inst hits
system.cpu.dtb.instMisses                           0                       # ITB inst misses
system.cpu.dtb.readHits                             0                       # DTB read hits
system.cpu.dtb.readMisses                           0                       # DTB read misses
system.cpu.dtb.writeHits                            0                       # DTB write hits
system.cpu.dtb.writeMisses                          0                       # DTB write misses
system.cpu.dtb.inserts                              0                       # Number of times an entry is inserted into the TLB
system.cpu.dtb.flushTlb                             0                       # Number of times complete TLB was flushed
system.cpu.dtb.flushTlbMva                          0                       # Number of times TLB was flushed by MVA
system.cpu.dtb.flushTlbMvaAsid                      0                       # Number of times TLB was flushed by MVA & ASID
system.cpu.dtb.flushTlbAsid                         0                       # Number of times TLB was flushed by ASID
system.cpu.dtb.flushedEntries                       0                       # Number of entries that have been flushed from TLB
system.cpu.dtb.alignFaults                          0                       # Number of TLB faults due to alignment restrictions
system.cpu.dtb.prefetchFaults                       0                       # Number of TLB faults due to prefetch
system.cpu.dtb.domainFaults                         0                       # Number of TLB faults due to domain restrictions
system.cpu.dtb.permsFaults                          0                       # Number of TLB faults due to permissions restrictions
system.cpu.dtb.readAccesses                         0                       # DTB read accesses
system.cpu.dtb.writeAccesses                        0                       # DTB write accesses
system.cpu.dtb.instAccesses                         0                       # ITB inst accesses
system.cpu.dtb.hits                                 0                       # Total TLB (inst and data) hits
system.cpu.dtb.misses                               0                       # Total TLB (inst and data) misses
system.cpu.dtb.accesses                             0                       # Total TLB (inst and data) accesses
system.cpu.dtb.stage2_mmu.stage2_tlb.instHits            0                       # ITB inst hits
system.cpu.dtb.stage2_mmu.stage2_tlb.instMisses            0                       # ITB inst misses
system.cpu.dtb.stage2_mmu.stage2_tlb.readHits            0                       # DTB read hits
system.cpu.dtb.stage2_mmu.stage2_tlb.readMisses            0                       # DTB read misses
system.cpu.dtb.stage2_mmu.stage2_tlb.writeHits            0                       # DTB write hits
system.cpu.dtb.stage2_mmu.stage2_tlb.writeMisses            0                       # DTB write misses
system.cpu.dtb.stage2_mmu.stage2_tlb.inserts            0                       # Number of times an entry is inserted into the TLB
system.cpu.dtb.stage2_mmu.stage2_tlb.flushTlb            0                       # Number of times complete TLB was flushed
system.cpu.dtb.stage2_mmu.stage2_tlb.flushTlbMva            0                       # Number of times TLB was flushed by MVA
system.cpu.dtb.stage2_mmu.stage2_tlb.flushTlbMvaAsid            0                       # Number of times TLB was flushed by MVA & ASID
system.cpu.dtb.stage2_mmu.stage2_tlb.flushTlbAsid            0                       # Number of times TLB was flushed by ASID
system.cpu.dtb.stage2_mmu.stage2_tlb.flushedEntries            0                       # Number of entries that have been flushed from TLB
system.cpu.dtb.stage2_mmu.stage2_tlb.alignFaults            0                       # Number of TLB faults due to alignment restrictions
system.cpu.dtb.stage2_mmu.stage2_tlb.prefetchFaults            0                       # Number of TLB faults due to prefetch
system.cpu.dtb.stage2_mmu.stage2_tlb.domainFaults            0                       # Number of TLB faults due to domain restrictions
system.cpu.dtb.stage2_mmu.stage2_tlb.permsFaults            0                       # Number of TLB faults due to permissions restrictions
system.cpu.dtb.stage2_mmu.stage2_tlb.readAccesses            0                       # DTB read accesses
system.cpu.dtb.stage2_mmu.stage2_tlb.writeAccesses            0                       # DTB write accesses
system.cpu.dtb.stage2_mmu.stage2_tlb.instAccesses            0                       # ITB inst accesses
system.cpu.dtb.stage2_mmu.stage2_tlb.hits            0                       # Total TLB (inst and data) hits
system.cpu.dtb.stage2_mmu.stage2_tlb.misses            0                       # Total TLB (inst and data) misses
system.cpu.dtb.stage2_mmu.stage2_tlb.accesses            0                       # Total TLB (inst and data) accesses
system.cpu.dtb.stage2_mmu.stage2_tlb.walker.walks            0                       # Table walker walks requested
system.cpu.dtb.stage2_mmu.stage2_tlb.walker.requestOrigin_Requested::Data            0                       # Table walker requests started/completed, data/inst
system.cpu.dtb.stage2_mmu.stage2_tlb.walker.requestOrigin_Requested::Inst            0                       # Table walker requests started/completed, data/inst
system.cpu.dtb.stage2_mmu.stage2_tlb.walker.requestOrigin_Requested::total            0                       # Table walker requests started/completed, data/inst
system.cpu.dtb.stage2_mmu.stage2_tlb.walker.requestOrigin_Completed::Data            0                       # Table walker requests started/completed, data/inst
system.cpu.dtb.stage2_mmu.stage2_tlb.walker.requestOrigin_Completed::Inst            0                       # Table walker requests started/completed, data/inst
system.cpu.dtb.stage2_mmu.stage2_tlb.walker.requestOrigin_Completed::total            0                       # Table walker requests started/completed, data/inst
system.cpu.dtb.stage2_mmu.stage2_tlb.walker.requestOrigin::total            0                       # Table walker requests started/completed, data/inst
system.cpu.dtb.stage2_mmu.stage2_tlb.walker.power_state.pwrStateResidencyTicks::UNDEFINED 162001515000                       # Cumulative time (in ticks) in various power states
system.cpu.dtb.walker.walks                         0                       # Table walker walks requested
system.cpu.dtb.walker.requestOrigin_Requested::Data            0                       # Table walker requests started/completed, data/inst
system.cpu.dtb.walker.requestOrigin_Requested::Inst            0                       # Table walker requests started/completed, data/inst
system.cpu.dtb.walker.requestOrigin_Requested::total            0                       # Table walker requests started/completed, data/inst
system.cpu.dtb.walker.requestOrigin_Completed::Data            0                       # Table walker requests started/completed, data/inst
system.cpu.dtb.walker.requestOrigin_Completed::Inst            0                       # Table walker requests started/completed, data/inst
system.cpu.dtb.walker.requestOrigin_Completed::total            0                       # Table walker requests started/completed, data/inst
system.cpu.dtb.walker.requestOrigin::total            0                       # Table walker requests started/completed, data/inst
system.cpu.dtb.walker.power_state.pwrStateResidencyTicks::UNDEFINED 162001515000                       # Cumulative time (in ticks) in various power states
system.cpu.fetch2.intInstructions            42690765                       # Number of integer instructions successfully decoded
system.cpu.fetch2.fpInstructions                    0                       # Number of floating point instructions successfully decoded
system.cpu.fetch2.vecInstructions                   0                       # Number of SIMD instructions successfully decoded
system.cpu.fetch2.loadInstructions           43481131                       # Number of memory load instructions successfully decoded
system.cpu.fetch2.storeInstructions          11027775                       # Number of memory store instructions successfully decoded
system.cpu.fetch2.amoInstructions                   0                       # Number of memory atomic instructions successfully decoded
system.cpu.icache.demand_hits::.cpu.inst      6560874                       # number of demand (read+write) hits
system.cpu.icache.demand_hits::total          6560874                       # number of demand (read+write) hits
system.cpu.icache.overall_hits::.cpu.inst      6560874                       # number of overall hits
system.cpu.icache.overall_hits::total         6560874                       # number of overall hits
system.cpu.icache.demand_misses::.cpu.inst          138                       # number of demand (read+write) misses
system.cpu.icache.demand_misses::total            138                       # number of demand (read+write) misses
system.cpu.icache.overall_misses::.cpu.inst          138                       # number of overall misses
system.cpu.icache.overall_misses::total           138                       # number of overall misses
system.cpu.icache.demand_miss_latency::.cpu.inst     27886000                       # number of demand (read+write) miss cycles
system.cpu.icache.demand_miss_latency::total     27886000                       # number of demand (read+write) miss cycles
system.cpu.icache.overall_miss_latency::.cpu.inst     27886000                       # number of overall miss cycles
system.cpu.icache.overall_miss_latency::total     27886000                       # number of overall miss cycles
system.cpu.icache.demand_accesses::.cpu.inst      6561012                       # number of demand (read+write) accesses
system.cpu.icache.demand_accesses::total      6561012                       # number of demand (read+write) accesses
system.cpu.icache.overall_accesses::.cpu.inst      6561012                       # number of overall (read+write) accesses
system.cpu.icache.overall_accesses::total      6561012                       # number of overall (read+write) accesses
system.cpu.icache.demand_miss_rate::.cpu.inst     0.000021                       # miss rate for demand accesses
system.cpu.icache.demand_miss_rate::total     0.000021                       # miss rate for demand accesses
system.cpu.icache.overall_miss_rate::.cpu.inst     0.000021                       # miss rate for overall accesses
system.cpu.icache.overall_miss_rate::total     0.000021                       # miss rate for overall accesses
system.cpu.icache.demand_avg_miss_latency::.cpu.inst 202072.463768                       # average overall miss latency
system.cpu.icache.demand_avg_miss_latency::total 202072.463768                       # average overall miss latency
system.cpu.icache.overall_avg_miss_latency::.cpu.inst 202072.463768                       # average overall miss latency
system.cpu.icache.overall_avg_miss_latency::total 202072.463768                       # average overall miss latency
system.cpu.icache.blocked_cycles::no_mshrs            0                       # number of cycles access was blocked
system.cpu.icache.blocked_cycles::no_targets            0                       # number of cycles access was blocked
system.cpu.icache.blocked::no_mshrs                 0                       # number of cycles access was blocked
system.cpu.icache.blocked::no_targets               0                       # number of cycles access was blocked
system.cpu.icache.avg_blocked_cycles::no_mshrs          nan                       # average number of cycles each access was blocked
system.cpu.icache.avg_blocked_cycles::no_targets          nan                       # average number of cycles each access was blocked
system.cpu.icache.writebacks::.writebacks           19                       # number of writebacks
system.cpu.icache.writebacks::total                19                       # number of writebacks
system.cpu.icache.demand_mshr_misses::.cpu.inst          138                       # number of demand (read+write) MSHR misses
system.cpu.icache.demand_mshr_misses::total          138                       # number of demand (read+write) MSHR misses
system.cpu.icache.overall_mshr_misses::.cpu.inst          138                       # number of overall MSHR misses
system.cpu.icache.overall_mshr_misses::total          138                       # number of overall MSHR misses
system.cpu.icache.demand_mshr_miss_latency::.cpu.inst     27610000                       # number of demand (read+write) MSHR miss cycles
system.cpu.icache.demand_mshr_miss_latency::total     27610000                       # number of demand (read+write) MSHR miss cycles
system.cpu.icache.overall_mshr_miss_latency::.cpu.inst     27610000                       # number of overall MSHR miss cycles
system.cpu.icache.overall_mshr_miss_latency::total     27610000                       # number of overall MSHR miss cycles
system.cpu.icache.demand_mshr_miss_rate::.cpu.inst     0.000021                       # mshr miss rate for demand accesses
system.cpu.icache.demand_mshr_miss_rate::total     0.000021                       # mshr miss rate for demand accesses
system.cpu.icache.overall_mshr_miss_rate::.cpu.inst     0.000021                       # mshr miss rate for overall accesses
system.cpu.icache.overall_mshr_miss_rate::total     0.000021                       # mshr miss rate for overall accesses
system.cpu.icache.demand_avg_mshr_miss_latency::.cpu.inst 200072.463768                       # average overall mshr miss latency
system.cpu.icache.demand_avg_mshr_miss_latency::total 200072.463768                       # average overall mshr miss latency
system.cpu.icache.overall_avg_mshr_miss_latency::.cpu.inst 200072.463768                       # average overall mshr miss latency
system.cpu.icache.overall_avg_mshr_miss_latency::total 200072.463768                       # average overall mshr miss latency
system.cpu.icache.replacements                     19                       # number of replacements
system.cpu.icache.ReadReq_hits::.cpu.inst      6560874                       # number of ReadReq hits
system.cpu.icache.ReadReq_hits::total         6560874                       # number of ReadReq hits
system.cpu.icache.ReadReq_misses::.cpu.inst          138                       # number of ReadReq misses
system.cpu.icache.ReadReq_misses::total           138                       # number of ReadReq misses
system.cpu.icache.ReadReq_miss_latency::.cpu.inst     27886000                       # number of ReadReq miss cycles
system.cpu.icache.ReadReq_miss_latency::total     27886000                       # number of ReadReq miss cycles
system.cpu.icache.ReadReq_accesses::.cpu.inst      6561012                       # number of ReadReq accesses(hits+misses)
system.cpu.icache.ReadReq_accesses::total      6561012                       # number of ReadReq accesses(hits+misses)
system.cpu.icache.ReadReq_miss_rate::.cpu.inst     0.000021                       # miss rate for ReadReq accesses
system.cpu.icache.ReadReq_miss_rate::total     0.000021                       # miss rate for ReadReq accesses
system.cpu.icache.ReadReq_avg_miss_latency::.cpu.inst 202072.463768                       # average ReadReq miss latency
system.cpu.icache.ReadReq_avg_miss_latency::total 202072.463768                       # average ReadReq miss latency
system.cpu.icache.ReadReq_mshr_misses::.cpu.inst          138                       # number of ReadReq MSHR misses
system.cpu.icache.ReadReq_mshr_misses::total          138                       # number of ReadReq MSHR misses
system.cpu.icache.ReadReq_mshr_miss_latency::.cpu.inst     27610000                       # number of ReadReq MSHR miss cycles
system.cpu.icache.ReadReq_mshr_miss_latency::total     27610000                       # number of ReadReq MSHR miss cycles
system.cpu.icache.ReadReq_mshr_miss_rate::.cpu.inst     0.000021                       # mshr miss rate for ReadReq accesses
system.cpu.icache.ReadReq_mshr_miss_rate::total     0.000021                       # mshr miss rate for ReadReq accesses
system.cpu.icache.ReadReq_avg_mshr_miss_latency::.cpu.inst 200072.463768                       # average ReadReq mshr miss latency
system.cpu.icache.ReadReq_avg_mshr_miss_latency::total 200072.463768                       # average ReadReq mshr miss latency
system.cpu.icache.power_state.pwrStateResidencyTicks::UNDEFINED 162001515000                       # Cumulative time (in ticks) in various power states
system.cpu.icache.tags.tagsinuse           113.702296                       # Cycle average of tags in use
system.cpu.icache.tags.total_refs             6561012                       # Total number of references to valid blocks.
system.cpu.icache.tags.sampled_refs               138                       # Sample count of references to valid blocks.
system.cpu.icache.tags.avg_refs          47543.565217                       # Average number of references to valid blocks.
system.cpu.icache.tags.warmup_cycle            183000                       # Cycle when the warmup percentage was hit.
system.cpu.icache.tags.occ_blocks::.cpu.inst   113.702296                       # Average occupied blocks per requestor
system.cpu.icache.tags.occ_percent::.cpu.inst     0.888299                       # Average percentage of cache occupancy
system.cpu.icache.tags.occ_percent::total     0.888299                       # Average percentage of cache occupancy
system.cpu.icache.tags.occ_task_id_blocks::1024          119                       # Occupied blocks per task id
system.cpu.icache.tags.age_task_id_blocks_1024::4          119                       # Occupied blocks per task id
system.cpu.icache.tags.occ_task_id_percent::1024     0.929688                       # Percentage of cache occupancy per task id
system.cpu.icache.tags.tag_accesses          52488234                       # Number of tag accesses
system.cpu.icache.tags.data_accesses         52488234                       # Number of data accesses
system.cpu.icache.tags.power_state.pwrStateResidencyTicks::UNDEFINED 162001515000                       # Cumulative time (in ticks) in various power states
system.cpu.itb.instHits                             0                       # ITB inst hits
system.cpu.itb.instMisses                           0                       # ITB inst misses
system.cpu.itb.readHits                             0                       # DTB read hits
system.cpu.itb.readMisses                           0                       # DTB read misses
system.cpu.itb.writeHits                            0                       # DTB write hits
system.cpu.itb.writeMisses                          0                       # DTB write misses
system.cpu.itb.inserts                              0                       # Number of times an entry is inserted into the TLB
system.cpu.itb.flushTlb                             0                       # Number of times complete TLB was flushed
system.cpu.itb.flushTlbMva                          0                       # Number of times TLB was flushed by MVA
system.cpu.itb.flushTlbMvaAsid                      0                       # Number of times TLB was flushed by MVA & ASID
system.cpu.itb.flushTlbAsid                         0                       # Number of times TLB was flushed by ASID
system.cpu.itb.flushedEntries                       0                       # Number of entries that have been flushed from TLB
system.cpu.itb.alignFaults                          0                       # Number of TLB faults due to alignment restrictions
system.cpu.itb.prefetchFaults                       0                       # Number of TLB faults due to prefetch
system.cpu.itb.domainFaults                         0                       # Number of TLB faults due to domain restrictions
system.cpu.itb.permsFaults                          0                       # Number of TLB faults due to permissions restrictions
system.cpu.itb.readAccesses                         0                       # DTB read accesses
system.cpu.itb.writeAccesses                        0                       # DTB write accesses
system.cpu.itb.instAccesses                         0                       # ITB inst accesses
system.cpu.itb.hits                                 0                       # Total TLB (inst and data) hits
system.cpu.itb.misses                               0                       # Total TLB (inst and data) misses
system.cpu.itb.accesses                             0                       # Total TLB (inst and data) accesses
system.cpu.itb.stage2_mmu.stage2_tlb.instHits            0                       # ITB inst hits
system.cpu.itb.stage2_mmu.stage2_tlb.instMisses            0                       # ITB inst misses
system.cpu.itb.stage2_mmu.stage2_tlb.readHits            0                       # DTB read hits
system.cpu.itb.stage2_mmu.stage2_tlb.readMisses            0                       # DTB read misses
system.cpu.itb.stage2_mmu.stage2_tlb.writeHits            0                       # DTB write hits
system.cpu.itb.stage2_mmu.stage2_tlb.writeMisses            0                       # DTB write misses
system.cpu.itb.stage2_mmu.stage2_tlb.inserts            0                       # Number of times an entry is inserted into the TLB
system.cpu.itb.stage2_mmu.stage2_tlb.flushTlb            0                       # Number of times complete TLB was flushed
system.cpu.itb.stage2_mmu.stage2_tlb.flushTlbMva            0                       # Number of times TLB was flushed by MVA
system.cpu.itb.stage2_mmu.stage2_tlb.flushTlbMvaAsid            0                       # Number of times TLB was flushed by MVA & ASID
system.cpu.itb.stage2_mmu.stage2_tlb.flushTlbAsid            0                       # Number of times TLB was flushed by ASID
system.cpu.itb.stage2_mmu.stage2_tlb.flushedEntries            0                       # Number of entries that have been flushed from TLB
system.cpu.itb.stage2_mmu.stage2_tlb.alignFaults            0                       # Number of TLB faults due to alignment restrictions
system.cpu.itb.stage2_mmu.stage2_tlb.prefetchFaults            0                       # Number of TLB faults due to prefetch
system.cpu.itb.stage2_mmu.stage2_tlb.domainFaults            0                       # Number of TLB faults due to domain restrictions
system.cpu.itb.stage2_mmu.stage2_tlb.permsFaults            0                       # Number of TLB faults due to permissions restrictions
system.cpu.itb.stage2_mmu.stage2_tlb.readAccesses            0                       # DTB read accesses
system.cpu.itb.stage2_mmu.stage2_tlb.writeAccesses            0                       # DTB write accesses
system.cpu.itb.stage2_mmu.stage2_tlb.instAccesses            0                       # ITB inst accesses
system.cpu.itb.stage2_mmu.stage2_tlb.hits            0                       # Total TLB (inst and data) hits
system.cpu.itb.stage2_mmu.stage2_tlb.misses            0                       # Total TLB (inst and data) misses
system.cpu.itb.stage2_mmu.stage2_tlb.accesses            0                       # Total TLB (inst and data) accesses
system.cpu.itb.stage2_mmu.stage2_tlb.walker.walks            0                       # Table walker walks requested
system.cpu.itb.stage2_mmu.stage2_tlb.walker.requestOrigin_Requested::Data            0                       # Table walker requests started/completed, data/inst
system.cpu.itb.stage2_mmu.stage2_tlb.walker.requestOrigin_Requested::Inst            0                       # Table walker requests started/completed, data/inst
system.cpu.itb.stage2_mmu.stage2_tlb.walker.requestOrigin_Requested::total            0                       # Table walker requests started/completed, data/inst
system.cpu.itb.stage2_mmu.stage2_tlb.walker.requestOrigin_Completed::Data            0                       # Table walker requests started/completed, data/inst
system.cpu.itb.stage2_mmu.stage2_tlb.walker.requestOrigin_Completed::Inst            0                       # Table walker requests started/completed, data/inst
system.cpu.itb.stage2_mmu.stage2_tlb.walker.requestOrigin_Completed::total            0                       # Table walker requests started/completed, data/inst
system.cpu.itb.stage2_mmu.stage2_tlb.walker.requestOrigin::total            0                       # Table walker requests started/completed, data/inst
system.cpu.itb.stage2_mmu.stage2_tlb.walker.power_state.pwrStateResidencyTicks::UNDEFINED 162001515000                       # Cumulative time (in ticks) in various power states
system.cpu.itb.walker.walks                         0                       # Table walker walks requested
system.cpu.itb.walker.requestOrigin_Requested::Data            0                       # Table walker requests started/completed, data/inst
system.cpu.itb.walker.requestOrigin_Requested::Inst            0                       # Table walker requests started/completed, data/inst
system.cpu.itb.walker.requestOrigin_Requested::total            0                       # Table walker requests started/completed, data/inst
system.cpu.itb.walker.requestOrigin_Completed::Data            0                       # Table walker requests started/completed, data/inst
system.cpu.itb.walker.requestOrigin_Completed::Inst            0                       # Table walker requests started/completed, data/inst
system.cpu.itb.walker.requestOrigin_Completed::total            0                       # Table walker requests started/completed, data/inst
system.cpu.itb.walker.requestOrigin::total            0                       # Table walker requests started/completed, data/inst
system.cpu.itb.walker.power_state.pwrStateResidencyTicks::UNDEFINED 162001515000                       # Cumulative time (in ticks) in various power states
system.cpu.power_state.pwrStateResidencyTicks::ON 162001515000                       # Cumulative time (in ticks) in various power states
system.cpu.thread_0.numInsts                100000000                       # Number of Instructions committed
system.cpu.thread_0.numOps                  100196363                       # Number of Ops committed
system.cpu.thread_0.numMemRefs                      0                       # Number of Memory References
system.cpu_clk_domain.clock                      1000                       # Clock period in ticks
system.cpu_voltage_domain.voltage                   1                       # Voltage in Volts
system.l2.demand_hits::.cpu.inst                    3                       # number of demand (read+write) hits
system.l2.demand_hits::.cpu.data               585475                       # number of demand (read+write) hits
system.l2.demand_hits::total                   585478                       # number of demand (read+write) hits
system.l2.overall_hits::.cpu.inst                   3                       # number of overall hits
system.l2.overall_hits::.cpu.data              585475                       # number of overall hits
system.l2.overall_hits::total                  585478                       # number of overall hits
system.l2.demand_misses::.cpu.inst                135                       # number of demand (read+write) misses
system.l2.demand_misses::.cpu.data              47952                       # number of demand (read+write) misses
system.l2.demand_misses::total                  48087                       # number of demand (read+write) misses
system.l2.overall_misses::.cpu.inst               135                       # number of overall misses
system.l2.overall_misses::.cpu.data             47952                       # number of overall misses
system.l2.overall_misses::total                 48087                       # number of overall misses
system.l2.demand_miss_latency::.cpu.inst     26908000                       # number of demand (read+write) miss cycles
system.l2.demand_miss_latency::.cpu.data  16245270492                       # number of demand (read+write) miss cycles
system.l2.demand_miss_latency::total      16272178492                       # number of demand (read+write) miss cycles
system.l2.overall_miss_latency::.cpu.inst     26908000                       # number of overall miss cycles
system.l2.overall_miss_latency::.cpu.data  16245270492                       # number of overall miss cycles
system.l2.overall_miss_latency::total     16272178492                       # number of overall miss cycles
system.l2.demand_accesses::.cpu.inst              138                       # number of demand (read+write) accesses
system.l2.demand_accesses::.cpu.data           633427                       # number of demand (read+write) accesses
system.l2.demand_accesses::total               633565                       # number of demand (read+write) accesses
system.l2.overall_accesses::.cpu.inst             138                       # number of overall (read+write) accesses
system.l2.overall_accesses::.cpu.data          633427                       # number of overall (read+write) accesses
system.l2.overall_accesses::total              633565                       # number of overall (read+write) accesses
system.l2.demand_miss_rate::.cpu.inst        0.978261                       # miss rate for demand accesses
system.l2.demand_miss_rate::.cpu.data        0.075702                       # miss rate for demand accesses
system.l2.demand_miss_rate::total            0.075899                       # miss rate for demand accesses
system.l2.overall_miss_rate::.cpu.inst       0.978261                       # miss rate for overall accesses
system.l2.overall_miss_rate::.cpu.data       0.075702                       # miss rate for overall accesses
system.l2.overall_miss_rate::total           0.075899                       # miss rate for overall accesses
system.l2.demand_avg_miss_latency::.cpu.inst 199318.518519                       # average overall miss latency
system.l2.demand_avg_miss_latency::.cpu.data 338781.917167                       # average overall miss latency
system.l2.demand_avg_miss_latency::total 338390.386009                       # average overall miss latency
system.l2.overall_avg_miss_latency::.cpu.inst 199318.518519                       # average overall miss latency
system.l2.overall_avg_miss_latency::.cpu.data 338781.917167                       # average overall miss latency
system.l2.overall_avg_miss_latency::total 338390.386009                       # average overall miss latency
system.l2.blocked_cycles::no_mshrs                  0                       # number of cycles access was blocked
system.l2.blocked_cycles::no_targets                0                       # number of cycles access was blocked
system.l2.blocked::no_mshrs                         0                       # number of cycles access was blocked
system.l2.blocked::no_targets                       0                       # number of cycles access was blocked
system.l2.avg_blocked_cycles::no_mshrs            nan                       # average number of cycles each access was blocked
system.l2.avg_blocked_cycles::no_targets          nan                       # average number of cycles each access was blocked
system.l2.writebacks::.writebacks               33147                       # number of writebacks
system.l2.writebacks::total                     33147                       # number of writebacks
system.l2.demand_mshr_hits::.cpu.data               2                       # number of demand (read+write) MSHR hits
system.l2.demand_mshr_hits::total                   2                       # number of demand (read+write) MSHR hits
system.l2.overall_mshr_hits::.cpu.data              2                       # number of overall MSHR hits
system.l2.overall_mshr_hits::total                  2                       # number of overall MSHR hits
system.l2.demand_mshr_misses::.cpu.inst           135                       # number of demand (read+write) MSHR misses
system.l2.demand_mshr_misses::.cpu.data         47950                       # number of demand (read+write) MSHR misses
system.l2.demand_mshr_misses::total             48085                       # number of demand (read+write) MSHR misses
system.l2.overall_mshr_misses::.cpu.inst          135                       # number of overall MSHR misses
system.l2.overall_mshr_misses::.cpu.data        47950                       # number of overall MSHR misses
system.l2.overall_mshr_misses::total            48085                       # number of overall MSHR misses
system.l2.demand_mshr_miss_latency::.cpu.inst     24208000                       # number of demand (read+write) MSHR miss cycles
system.l2.demand_mshr_miss_latency::.cpu.data  15285887492                       # number of demand (read+write) MSHR miss cycles
system.l2.demand_mshr_miss_latency::total  15310095492                       # number of demand (read+write) MSHR miss cycles
system.l2.overall_mshr_miss_latency::.cpu.inst     24208000                       # number of overall MSHR miss cycles
system.l2.overall_mshr_miss_latency::.cpu.data  15285887492                       # number of overall MSHR miss cycles
system.l2.overall_mshr_miss_latency::total  15310095492                       # number of overall MSHR miss cycles
system.l2.demand_mshr_miss_rate::.cpu.inst     0.978261                       # mshr miss rate for demand accesses
system.l2.demand_mshr_miss_rate::.cpu.data     0.075699                       # mshr miss rate for demand accesses
system.l2.demand_mshr_miss_rate::total       0.075896                       # mshr miss rate for demand accesses
system.l2.overall_mshr_miss_rate::.cpu.inst     0.978261                       # mshr miss rate for overall accesses
system.l2.overall_mshr_miss_rate::.cpu.data     0.075699                       # mshr miss rate for overall accesses
system.l2.overall_mshr_miss_rate::total      0.075896                       # mshr miss rate for overall accesses
system.l2.demand_avg_mshr_miss_latency::.cpu.inst 179318.518519                       # average overall mshr miss latency
system.l2.demand_avg_mshr_miss_latency::.cpu.data 318788.060313                       # average overall mshr miss latency
system.l2.demand_avg_mshr_miss_latency::total 318396.495622                       # average overall mshr miss latency
system.l2.overall_avg_mshr_miss_latency::.cpu.inst 179318.518519                       # average overall mshr miss latency
system.l2.overall_avg_mshr_miss_latency::.cpu.data 318788.060313                       # average overall mshr miss latency
system.l2.overall_avg_mshr_miss_latency::total 318396.495622                       # average overall mshr miss latency
system.l2.replacements                          44011                       # number of replacements
system.l2.WritebackDirty_hits::.writebacks       619797                       # number of WritebackDirty hits
system.l2.WritebackDirty_hits::total           619797                       # number of WritebackDirty hits
system.l2.WritebackDirty_accesses::.writebacks       619797                       # number of WritebackDirty accesses(hits+misses)
system.l2.WritebackDirty_accesses::total       619797                       # number of WritebackDirty accesses(hits+misses)
system.l2.WritebackClean_hits::.writebacks           19                       # number of WritebackClean hits
system.l2.WritebackClean_hits::total               19                       # number of WritebackClean hits
system.l2.WritebackClean_accesses::.writebacks           19                       # number of WritebackClean accesses(hits+misses)
system.l2.WritebackClean_accesses::total           19                       # number of WritebackClean accesses(hits+misses)
system.l2.CleanEvict_mshr_misses::.writebacks            1                       # number of CleanEvict MSHR misses
system.l2.CleanEvict_mshr_misses::total             1                       # number of CleanEvict MSHR misses
system.l2.CleanEvict_mshr_miss_rate::.writebacks          inf                       # mshr miss rate for CleanEvict accesses
system.l2.CleanEvict_mshr_miss_rate::total          inf                       # mshr miss rate for CleanEvict accesses
system.l2.ReadExReq_hits::.cpu.data            312124                       # number of ReadExReq hits
system.l2.ReadExReq_hits::total                312124                       # number of ReadExReq hits
system.l2.ReadExReq_misses::.cpu.data           36811                       # number of ReadExReq misses
system.l2.ReadExReq_misses::total               36811                       # number of ReadExReq misses
system.l2.ReadExReq_miss_latency::.cpu.data  13930839492                       # number of ReadExReq miss cycles
system.l2.ReadExReq_miss_latency::total   13930839492                       # number of ReadExReq miss cycles
system.l2.ReadExReq_accesses::.cpu.data        348935                       # number of ReadExReq accesses(hits+misses)
system.l2.ReadExReq_accesses::total            348935                       # number of ReadExReq accesses(hits+misses)
system.l2.ReadExReq_miss_rate::.cpu.data     0.105495                       # miss rate for ReadExReq accesses
system.l2.ReadExReq_miss_rate::total         0.105495                       # miss rate for ReadExReq accesses
system.l2.ReadExReq_avg_miss_latency::.cpu.data 378442.299639                       # average ReadExReq miss latency
system.l2.ReadExReq_avg_miss_latency::total 378442.299639                       # average ReadExReq miss latency
system.l2.ReadExReq_mshr_misses::.cpu.data        36811                       # number of ReadExReq MSHR misses
system.l2.ReadExReq_mshr_misses::total          36811                       # number of ReadExReq MSHR misses
system.l2.ReadExReq_mshr_miss_latency::.cpu.data  13194619492                       # number of ReadExReq MSHR miss cycles
system.l2.ReadExReq_mshr_miss_latency::total  13194619492                       # number of ReadExReq MSHR miss cycles
system.l2.ReadExReq_mshr_miss_rate::.cpu.data     0.105495                       # mshr miss rate for ReadExReq accesses
system.l2.ReadExReq_mshr_miss_rate::total     0.105495                       # mshr miss rate for ReadExReq accesses
system.l2.ReadExReq_avg_mshr_miss_latency::.cpu.data 358442.299639                       # average ReadExReq mshr miss latency
system.l2.ReadExReq_avg_mshr_miss_latency::total 358442.299639                       # average ReadExReq mshr miss latency
system.l2.ReadCleanReq_hits::.cpu.inst              3                       # number of ReadCleanReq hits
system.l2.ReadCleanReq_hits::total                  3                       # number of ReadCleanReq hits
system.l2.ReadCleanReq_misses::.cpu.inst          135                       # number of ReadCleanReq misses
system.l2.ReadCleanReq_misses::total              135                       # number of ReadCleanReq misses
system.l2.ReadCleanReq_miss_latency::.cpu.inst     26908000                       # number of ReadCleanReq miss cycles
system.l2.ReadCleanReq_miss_latency::total     26908000                       # number of ReadCleanReq miss cycles
system.l2.ReadCleanReq_accesses::.cpu.inst          138                       # number of ReadCleanReq accesses(hits+misses)
system.l2.ReadCleanReq_accesses::total            138                       # number of ReadCleanReq accesses(hits+misses)
system.l2.ReadCleanReq_miss_rate::.cpu.inst     0.978261                       # miss rate for ReadCleanReq accesses
system.l2.ReadCleanReq_miss_rate::total      0.978261                       # miss rate for ReadCleanReq accesses
system.l2.ReadCleanReq_avg_miss_latency::.cpu.inst 199318.518519                       # average ReadCleanReq miss latency
system.l2.ReadCleanReq_avg_miss_latency::total 199318.518519                       # average ReadCleanReq miss latency
system.l2.ReadCleanReq_mshr_misses::.cpu.inst          135                       # number of ReadCleanReq MSHR misses
system.l2.ReadCleanReq_mshr_misses::total          135                       # number of ReadCleanReq MSHR misses
system.l2.ReadCleanReq_mshr_miss_latency::.cpu.inst     24208000                       # number of ReadCleanReq MSHR miss cycles
system.l2.ReadCleanReq_mshr_miss_latency::total     24208000                       # number of ReadCleanReq MSHR miss cycles
system.l2.ReadCleanReq_mshr_miss_rate::.cpu.inst     0.978261                       # mshr miss rate for ReadCleanReq accesses
system.l2.ReadCleanReq_mshr_miss_rate::total     0.978261                       # mshr miss rate for ReadCleanReq accesses
system.l2.ReadCleanReq_avg_mshr_miss_latency::.cpu.inst 179318.518519                       # average ReadCleanReq mshr miss latency
system.l2.ReadCleanReq_avg_mshr_miss_latency::total 179318.518519                       # average ReadCleanReq mshr miss latency
system.l2.ReadSharedReq_hits::.cpu.data        273351                       # number of ReadSharedReq hits
system.l2.ReadSharedReq_hits::total            273351                       # number of ReadSharedReq hits
system.l2.ReadSharedReq_misses::.cpu.data        11141                       # number of ReadSharedReq misses
system.l2.ReadSharedReq_misses::total           11141                       # number of ReadSharedReq misses
system.l2.ReadSharedReq_miss_latency::.cpu.data   2314431000                       # number of ReadSharedReq miss cycles
system.l2.ReadSharedReq_miss_latency::total   2314431000                       # number of ReadSharedReq miss cycles
system.l2.ReadSharedReq_accesses::.cpu.data       284492                       # number of ReadSharedReq accesses(hits+misses)
system.l2.ReadSharedReq_accesses::total        284492                       # number of ReadSharedReq accesses(hits+misses)
system.l2.ReadSharedReq_miss_rate::.cpu.data     0.039161                       # miss rate for ReadSharedReq accesses
system.l2.ReadSharedReq_miss_rate::total     0.039161                       # miss rate for ReadSharedReq accesses
system.l2.ReadSharedReq_avg_miss_latency::.cpu.data 207739.969482                       # average ReadSharedReq miss latency
system.l2.ReadSharedReq_avg_miss_latency::total 207739.969482                       # average ReadSharedReq miss latency
system.l2.ReadSharedReq_mshr_hits::.cpu.data            2                       # number of ReadSharedReq MSHR hits
system.l2.ReadSharedReq_mshr_hits::total            2                       # number of ReadSharedReq MSHR hits
system.l2.ReadSharedReq_mshr_misses::.cpu.data        11139                       # number of ReadSharedReq MSHR misses
system.l2.ReadSharedReq_mshr_misses::total        11139                       # number of ReadSharedReq MSHR misses
system.l2.ReadSharedReq_mshr_miss_latency::.cpu.data   2091268000                       # number of ReadSharedReq MSHR miss cycles
system.l2.ReadSharedReq_mshr_miss_latency::total   2091268000                       # number of ReadSharedReq MSHR miss cycles
system.l2.ReadSharedReq_mshr_miss_rate::.cpu.data     0.039154                       # mshr miss rate for ReadSharedReq accesses
system.l2.ReadSharedReq_mshr_miss_rate::total     0.039154                       # mshr miss rate for ReadSharedReq accesses
system.l2.ReadSharedReq_avg_mshr_miss_latency::.cpu.data 187742.885358                       # average ReadSharedReq mshr miss latency
system.l2.ReadSharedReq_avg_mshr_miss_latency::total 187742.885358                       # average ReadSharedReq mshr miss latency
system.l2.power_state.pwrStateResidencyTicks::UNDEFINED 162001515000                       # Cumulative time (in ticks) in various power states
system.l2.tags.tagsinuse                  4089.533824                       # Cycle average of tags in use
system.l2.tags.total_refs                     1266661                       # Total number of references to valid blocks.
system.l2.tags.sampled_refs                     48107                       # Sample count of references to valid blocks.
system.l2.tags.avg_refs                     26.330077                       # Average number of references to valid blocks.
system.l2.tags.warmup_cycle                    162000                       # Cycle when the warmup percentage was hit.
system.l2.tags.occ_blocks::.writebacks       8.894689                       # Average occupied blocks per requestor
system.l2.tags.occ_blocks::.cpu.inst        12.736365                       # Average occupied blocks per requestor
system.l2.tags.occ_blocks::.cpu.data      4067.902770                       # Average occupied blocks per requestor
system.l2.tags.occ_percent::.writebacks      0.002172                       # Average percentage of cache occupancy
system.l2.tags.occ_percent::.cpu.inst        0.003109                       # Average percentage of cache occupancy
system.l2.tags.occ_percent::.cpu.data        0.993140                       # Average percentage of cache occupancy
system.l2.tags.occ_percent::total            0.998421                       # Average percentage of cache occupancy
system.l2.tags.occ_task_id_blocks::1024          4096                       # Occupied blocks per task id
system.l2.tags.age_task_id_blocks_1024::3            5                       # Occupied blocks per task id
system.l2.tags.age_task_id_blocks_1024::4         4091                       # Occupied blocks per task id
system.l2.tags.occ_task_id_percent::1024            1                       # Percentage of cache occupancy per task id
system.l2.tags.tag_accesses                  10181419                       # Number of tag accesses
system.l2.tags.data_accesses                 10181419                       # Number of data accesses
system.l2.tags.power_state.pwrStateResidencyTicks::UNDEFINED 162001515000                       # Cumulative time (in ticks) in various power states
system.mem_ctrls.avgPriority_.writebacks::samples    530352.00                       # Average QoS priority value for accepted requests
system.mem_ctrls.avgPriority_.cpu.inst::samples      2160.00                       # Average QoS priority value for accepted requests
system.mem_ctrls.avgPriority_.cpu.data::samples    767200.00                       # Average QoS priority value for accepted requests
system.mem_ctrls.priorityMinLatency      0.000000018750                       # per QoS priority minimum request to response latency (s)
system.mem_ctrls.priorityMaxLatency      0.205088572750                       # per QoS priority maximum request to response latency (s)
system.mem_ctrls.numReadWriteTurnArounds        29891                       # Number of turnarounds from READ to WRITE
system.mem_ctrls.numWriteReadTurnArounds        29891                       # Number of turnarounds from WRITE to READ
system.mem_ctrls.numStayReadState              813480                       # Number of times bus staying in READ state
system.mem_ctrls.numStayWriteState             501693                       # Number of times bus staying in WRITE state
system.mem_ctrls.readReqs                       48085                       # Number of read requests accepted
system.mem_ctrls.writeReqs                      33147                       # Number of write requests accepted
system.mem_ctrls.readBursts                    769360                       # Number of controller read bursts, including those serviced by the write queue
system.mem_ctrls.writeBursts                   530352                       # Number of controller write bursts, including those merged in the write queue
system.mem_ctrls.servicedByWrQ                      0                       # Number of controller read bursts serviced by the write queue
system.mem_ctrls.mergedWrBursts                     0                       # Number of controller write bursts merged with an existing one
system.mem_ctrls.neitherReadNorWriteReqs            0                       # Number of requests that are neither read nor write
system.mem_ctrls.avgRdQLen                      16.36                       # Average read queue length when enqueuing
system.mem_ctrls.avgWrQLen                      37.25                       # Average write queue length when enqueuing
system.mem_ctrls.numRdRetry                        16                       # Number of times read queue was full causing retry
system.mem_ctrls.numWrRetry                    119793                       # Number of times write queue was full causing retry
system.mem_ctrls.readPktSize::0                     0                       # Read request sizes (log2)
system.mem_ctrls.readPktSize::1                     0                       # Read request sizes (log2)
system.mem_ctrls.readPktSize::2                     0                       # Read request sizes (log2)
system.mem_ctrls.readPktSize::3                     0                       # Read request sizes (log2)
system.mem_ctrls.readPktSize::4                     0                       # Read request sizes (log2)
system.mem_ctrls.readPktSize::5                     0                       # Read request sizes (log2)
system.mem_ctrls.readPktSize::6                769360                       # Read request sizes (log2)
system.mem_ctrls.readPktSize::7                     0                       # Read request sizes (log2)
system.mem_ctrls.readPktSize::8                     0                       # Read request sizes (log2)
system.mem_ctrls.readPktSize::9                     0                       # Read request sizes (log2)
system.mem_ctrls.readPktSize::10                    0                       # Read request sizes (log2)
system.mem_ctrls.writePktSize::0                    0                       # Write request sizes (log2)
system.mem_ctrls.writePktSize::1                    0                       # Write request sizes (log2)
system.mem_ctrls.writePktSize::2                    0                       # Write request sizes (log2)
system.mem_ctrls.writePktSize::3                    0                       # Write request sizes (log2)
system.mem_ctrls.writePktSize::4                    0                       # Write request sizes (log2)
system.mem_ctrls.writePktSize::5                    0                       # Write request sizes (log2)
system.mem_ctrls.writePktSize::6               530352                       # Write request sizes (log2)
system.mem_ctrls.writePktSize::7                    0                       # Write request sizes (log2)
system.mem_ctrls.writePktSize::8                    0                       # Write request sizes (log2)
system.mem_ctrls.writePktSize::9                    0                       # Write request sizes (log2)
system.mem_ctrls.writePktSize::10                   0                       # Write request sizes (log2)
system.mem_ctrls.rdQLenPdf::0                   25886                       # What read queue length does an incoming req see
system.mem_ctrls.rdQLenPdf::1                   29380                       # What read queue length does an incoming req see
system.mem_ctrls.rdQLenPdf::2                   39212                       # What read queue length does an incoming req see
system.mem_ctrls.rdQLenPdf::3                   39288                       # What read queue length does an incoming req see
system.mem_ctrls.rdQLenPdf::4                   39366                       # What read queue length does an incoming req see
system.mem_ctrls.rdQLenPdf::5                   39408                       # What read queue length does an incoming req see
[...]
system.mem_ctrls.dram.bw_write::.writebacks    209519818                       # Write bandwidth from this memory (bytes/s)
system.mem_ctrls.dram.bw_write::total       209519818                       # Write bandwidth from this memory (bytes/s)
system.mem_ctrls.dram.bw_total::.writebacks    209519818                       # Total bandwidth to/from this memory (bytes/s)
system.mem_ctrls.dram.bw_total::.cpu.inst       853325                       # Total bandwidth to/from this memory (bytes/s)
system.mem_ctrls.dram.bw_total::.cpu.data    303088524                       # Total bandwidth to/from this memory (bytes/s)
system.mem_ctrls.dram.bw_total::total       513461667                       # Total bandwidth to/from this memory (bytes/s)
system.mem_ctrls.dram.readBursts               769360                       # Number of DRAM read bursts
system.mem_ctrls.dram.writeBursts              530321                       # Number of DRAM write bursts
system.mem_ctrls.dram.perBankRdBursts::0        48432                       # Per bank write bursts
system.mem_ctrls.dram.perBankRdBursts::1        48496                       # Per bank write bursts
system.mem_ctrls.dram.perBankRdBursts::2        48560                       # Per bank write bursts
system.mem_ctrls.dram.perBankRdBursts::3        48208                       # Per bank write bursts
system.mem_ctrls.dram.perBankRdBursts::4        48208                       # Per bank write bursts
system.mem_ctrls.dram.perBankRdBursts::5        48208                       # Per bank write bursts
system.mem_ctrls.dram.perBankRdBursts::6        48000                       # Per bank write bursts
system.mem_ctrls.dram.perBankRdBursts::7        47904                       # Per bank write bursts
system.mem_ctrls.dram.perBankRdBursts::8        47744                       # Per bank write bursts
system.mem_ctrls.dram.perBankRdBursts::9        47904                       # Per bank write bursts
system.mem_ctrls.dram.perBankRdBursts::10        47936                       # Per bank write bursts
system.mem_ctrls.dram.perBankRdBursts::11        47984                       # Per bank write bursts
system.mem_ctrls.dram.perBankRdBursts::12        47968                       # Per bank write bursts
system.mem_ctrls.dram.perBankRdBursts::13        47968                       # Per bank write bursts
system.mem_ctrls.dram.perBankRdBursts::14        47952                       # Per bank write bursts
system.mem_ctrls.dram.perBankRdBursts::15        47888                       # Per bank write bursts
system.mem_ctrls.dram.perBankWrBursts::0        33136                       # Per bank write bursts
system.mem_ctrls.dram.perBankWrBursts::1        33393                       # Per bank write bursts
system.mem_ctrls.dram.perBankWrBursts::2        33424                       # Per bank write bursts
system.mem_ctrls.dram.perBankWrBursts::3        33232                       # Per bank write bursts
system.mem_ctrls.dram.perBankWrBursts::4        33248                       # Per bank write bursts
system.mem_ctrls.dram.perBankWrBursts::5        33216                       # Per bank write bursts
system.mem_ctrls.dram.perBankWrBursts::6        33280                       # Per bank write bursts
system.mem_ctrls.dram.perBankWrBursts::7        33104                       # Per bank write bursts
system.mem_ctrls.dram.perBankWrBursts::8        33088                       # Per bank write bursts
system.mem_ctrls.dram.perBankWrBursts::9        33056                       # Per bank write bursts
system.mem_ctrls.dram.perBankWrBursts::10        33024                       # Per bank write bursts
system.mem_ctrls.dram.perBankWrBursts::11        33024                       # Per bank write bursts
system.mem_ctrls.dram.perBankWrBursts::12        33024                       # Per bank write bursts
system.mem_ctrls.dram.perBankWrBursts::13        33024                       # Per bank write bursts
system.mem_ctrls.dram.perBankWrBursts::14        33024                       # Per bank write bursts
system.mem_ctrls.dram.perBankWrBursts::15        33024                       # Per bank write bursts
system.mem_ctrls.dram.totQLat            130432218000                       # Total ticks spent queuing
system.mem_ctrls.dram.totBusLat            3846800000                       # Total ticks spent in databus transfers
system.mem_ctrls.dram.totMemAccLat       144857718000                       # Total ticks spent from burst creation until serviced by the DRAM
system.mem_ctrls.dram.avgQLat               169533.40                       # Average queueing delay per DRAM burst
system.mem_ctrls.dram.avgBusLat               5000.00                       # Average bus latency per DRAM burst
system.mem_ctrls.dram.avgMemAccLat          188283.40                       # Average memory access latency per DRAM burst
system.mem_ctrls.dram.readRowHits              712419                       # Number of row buffer hits during reads
system.mem_ctrls.dram.writeRowHits             491123                       # Number of row buffer hits during writes
system.mem_ctrls.dram.readRowHitRate            92.60                       # Row buffer hit rate for reads
system.mem_ctrls.dram.writeRowHitRate           92.61                       # Row buffer hit rate for writes
system.mem_ctrls.dram.bytesPerActivate::samples        96139                       # Bytes accessed per row activation
system.mem_ctrls.dram.bytesPerActivate::mean   865.201261                       # Bytes accessed per row activation
system.mem_ctrls.dram.bytesPerActivate::gmean   707.085130                       # Bytes accessed per row activation
system.mem_ctrls.dram.bytesPerActivate::stdev   326.757427                       # Bytes accessed per row activation
system.mem_ctrls.dram.bytesPerActivate::0-127         5032      5.23%      5.23% # Bytes accessed per row activation
system.mem_ctrls.dram.bytesPerActivate::128-255         9152      9.52%     14.75% # Bytes accessed per row activation
system.mem_ctrls.dram.bytesPerActivate::256-383          512      0.53%     15.29% # Bytes accessed per row activation
system.mem_ctrls.dram.bytesPerActivate::384-511          319      0.33%     15.62% # Bytes accessed per row activation
system.mem_ctrls.dram.bytesPerActivate::512-639          508      0.53%     16.15% # Bytes accessed per row activation
system.mem_ctrls.dram.bytesPerActivate::640-767          311      0.32%     16.47% # Bytes accessed per row activation
system.mem_ctrls.dram.bytesPerActivate::768-895         3066      3.19%     19.66% # Bytes accessed per row activation
system.mem_ctrls.dram.bytesPerActivate::896-1023         6310      6.56%     26.22% # Bytes accessed per row activation
system.mem_ctrls.dram.bytesPerActivate::1024-1151        70929     73.78%    100.00% # Bytes accessed per row activation
system.mem_ctrls.dram.bytesPerActivate::total        96139                       # Bytes accessed per row activation
system.mem_ctrls.dram.bytesRead              49239040                       # Total number of bytes read from DRAM
system.mem_ctrls.dram.bytesWritten           33940544                       # Total number of bytes written to DRAM
system.mem_ctrls.dram.avgRdBW              303.941849                       # Average DRAM read bandwidth in MiBytes/s
system.mem_ctrls.dram.avgWrBW              209.507572                       # Average DRAM write bandwidth in MiBytes/s
system.mem_ctrls.dram.peakBW                 12800.00                       # Theoretical peak bandwidth in MiByte/s
system.mem_ctrls.dram.busUtil                    4.01                       # Data bus utilization in percentage
system.mem_ctrls.dram.busUtilRead                2.37                       # Data bus utilization in percentage for reads
system.mem_ctrls.dram.busUtilWrite               1.64                       # Data bus utilization in percentage for writes
system.mem_ctrls.dram.pageHitRate               92.60                       # Row buffer hit rate, read and write combined
system.mem_ctrls.dram.power_state.pwrStateResidencyTicks::UNDEFINED 162001515000                       # Cumulative time (in ticks) in various power states
system.mem_ctrls.dram.rank0.actEnergy       344804880                       # Energy for activate commands per rank (pJ)
system.mem_ctrls.dram.rank0.preEnergy       183268140                       # Energy for precharge commands per rank (pJ)
system.mem_ctrls.dram.rank0.readEnergy     2756154240                       # Energy for read commands per rank (pJ)
system.mem_ctrls.dram.rank0.writeEnergy    1388692260                       # Energy for write commands per rank (pJ)
system.mem_ctrls.dram.rank0.refreshEnergy 12788199840.000002                       # Energy for refresh commands per rank (pJ)
system.mem_ctrls.dram.rank0.actBackEnergy   5235093750                       # Energy for active background per rank (pJ)
system.mem_ctrls.dram.rank0.preBackEnergy  57800081760                       # Energy for precharge background per rank (pJ)
system.mem_ctrls.dram.rank0.actPowerDownEnergy            0                       # Energy for active power-down per rank (pJ)
system.mem_ctrls.dram.rank0.prePowerDownEnergy            0                       # Energy for precharge power-down per rank (pJ)
system.mem_ctrls.dram.rank0.selfRefreshEnergy            0                       # Energy for self refresh per rank (pJ)
system.mem_ctrls.dram.rank0.totalEnergy   80496294870                       # Total energy per rank (pJ)
system.mem_ctrls.dram.rank0.averagePower   496.886062                       # Core power per rank (mW)
system.mem_ctrls.dram.rank0.totalIdleTime            0                       # Total Idle time Per DRAM Rank
system.mem_ctrls.dram.rank0.pwrStateTime::IDLE 149999901750                       # Time in different power states
system.mem_ctrls.dram.rank0.pwrStateTime::REF   5409560000                       # Time in different power states
system.mem_ctrls.dram.rank0.pwrStateTime::SREF            0                       # Time in different power states
system.mem_ctrls.dram.rank0.pwrStateTime::PRE_PDN            0                       # Time in different power states
system.mem_ctrls.dram.rank0.pwrStateTime::ACT   6592053250                       # Time in different power states
system.mem_ctrls.dram.rank0.pwrStateTime::ACT_PDN            0                       # Time in different power states
system.mem_ctrls.dram.rank1.actEnergy       341627580                       # Energy for activate commands per rank (pJ)
system.mem_ctrls.dram.rank1.preEnergy       181579365                       # Energy for precharge commands per rank (pJ)
system.mem_ctrls.dram.rank1.readEnergy     2737076160                       # Energy for read commands per rank (pJ)
system.mem_ctrls.dram.rank1.writeEnergy    1379583360                       # Energy for write commands per rank (pJ)
system.mem_ctrls.dram.rank1.refreshEnergy 12788199840.000002                       # Energy for refresh commands per rank (pJ)
system.mem_ctrls.dram.rank1.actBackEnergy   5188870740                       # Energy for active background per rank (pJ)
system.mem_ctrls.dram.rank1.preBackEnergy  57839006400                       # Energy for precharge background per rank (pJ)
system.mem_ctrls.dram.rank1.actPowerDownEnergy            0                       # Energy for active power-down per rank (pJ)
system.mem_ctrls.dram.rank1.prePowerDownEnergy            0                       # Energy for precharge power-down per rank (pJ)
system.mem_ctrls.dram.rank1.selfRefreshEnergy            0                       # Energy for self refresh per rank (pJ)
system.mem_ctrls.dram.rank1.totalEnergy   80455943445                       # Total energy per rank (pJ)
system.mem_ctrls.dram.rank1.averagePower   496.636982                       # Core power per rank (mW)
system.mem_ctrls.dram.rank1.totalIdleTime            0                       # Total Idle time Per DRAM Rank
system.mem_ctrls.dram.rank1.pwrStateTime::IDLE 150102150500                       # Time in different power states
system.mem_ctrls.dram.rank1.pwrStateTime::REF   5409560000                       # Time in different power states
system.mem_ctrls.dram.rank1.pwrStateTime::SREF            0                       # Time in different power states
system.mem_ctrls.dram.rank1.pwrStateTime::PRE_PDN            0                       # Time in different power states
system.mem_ctrls.dram.rank1.pwrStateTime::ACT   6489804500                       # Time in different power states
system.mem_ctrls.dram.rank1.pwrStateTime::ACT_PDN            0                       # Time in different power states
system.mem_ctrls.power_state.pwrStateResidencyTicks::UNDEFINED 162001515000                       # Cumulative time (in ticks) in various power states
system.membus.trans_dist::ReadResp              11274                       # Transaction distribution
system.membus.trans_dist::WritebackDirty        33147                       # Transaction distribution
system.membus.trans_dist::CleanEvict            10709                       # Transaction distribution
system.membus.trans_dist::ReadExReq             36811                       # Transaction distribution
system.membus.trans_dist::ReadExResp            36811                       # Transaction distribution
system.membus.trans_dist::ReadSharedReq         11274                       # Transaction distribution
system.membus.pkt_count_system.l2.mem_side_port::system.mem_ctrls.port       140026                       # Packet count per connected requestor and responder (bytes)
system.membus.pkt_count::total                 140026                       # Packet count per connected requestor and responder (bytes)
system.membus.pkt_size_system.l2.mem_side_port::system.mem_ctrls.port     83181568                       # Cumulative packet size per connected requestor and responder (bytes)
system.membus.pkt_size::total                83181568                       # Cumulative packet size per connected requestor and responder (bytes)
system.membus.snoops                                0                       # Total snoops (count)
system.membus.snoopTraffic                          0                       # Total snoop traffic (bytes)
system.membus.snoop_fanout::samples             48101                       # Request fanout histogram
system.membus.snoop_fanout::mean                    0                       # Request fanout histogram
system.membus.snoop_fanout::stdev                   0                       # Request fanout histogram
system.membus.snoop_fanout::underflows              0      0.00%      0.00% # Request fanout histogram
system.membus.snoop_fanout::0                   48101    100.00%    100.00% # Request fanout histogram
system.membus.snoop_fanout::1                       0      0.00%    100.00% # Request fanout histogram
system.membus.snoop_fanout::overflows               0      0.00%    100.00% # Request fanout histogram
system.membus.snoop_fanout::min_value               0                       # Request fanout histogram
system.membus.snoop_fanout::max_value               0                       # Request fanout histogram
system.membus.snoop_fanout::total               48101                       # Request fanout histogram
system.membus.power_state.pwrStateResidencyTicks::UNDEFINED 162001515000                       # Cumulative time (in ticks) in various power states
system.membus.reqLayer0.occupancy          2377222250                       # Layer occupancy (ticks)
system.membus.reqLayer0.utilization               1.5                       # Layer utilization (%)
system.membus.respLayer1.occupancy         3145881000                       # Layer occupancy (ticks)
system.membus.respLayer1.utilization              1.9                       # Layer utilization (%)
system.tol2bus.trans_dist::ReadResp            284630                       # Transaction distribution
system.tol2bus.trans_dist::WritebackDirty       652944                       # Transaction distribution
system.tol2bus.trans_dist::WritebackClean           19                       # Transaction distribution
system.tol2bus.trans_dist::CleanEvict           24366                       # Transaction distribution
system.tol2bus.trans_dist::ReadExReq           348935                       # Transaction distribution
system.tol2bus.trans_dist::ReadExResp          348935                       # Transaction distribution
system.tol2bus.trans_dist::ReadCleanReq           138                       # Transaction distribution
system.tol2bus.trans_dist::ReadSharedReq       284492                       # Transaction distribution
system.tol2bus.pkt_count_system.cpu.icache.mem_side_port::system.l2.cpu_side_port          295                       # Packet count per connected requestor and responder (bytes)
system.tol2bus.pkt_count_system.cpu.dcache.mem_side_port::system.l2.cpu_side_port      1900153                       # Packet count per connected requestor and responder (bytes)
system.tol2bus.pkt_count::total               1900448                       # Packet count per connected requestor and responder (bytes)
system.tol2bus.pkt_size_system.cpu.icache.mem_side_port::system.l2.cpu_side_port       160768                       # Cumulative packet size per connected requestor and responder (bytes)
system.tol2bus.pkt_size_system.cpu.dcache.mem_side_port::system.l2.cpu_side_port   1283301376                       # Cumulative packet size per connected requestor and responder (bytes)
system.tol2bus.pkt_size::total             1283462144                       # Cumulative packet size per connected requestor and responder (bytes)
system.tol2bus.snoops                           44011                       # Total snoops (count)
system.tol2bus.snoopTraffic                  33942528                       # Total snoop traffic (bytes)
system.tol2bus.snoop_fanout::samples           677576                       # Request fanout histogram
system.tol2bus.snoop_fanout::mean            0.000556                       # Request fanout histogram
system.tol2bus.snoop_fanout::stdev           0.023706                       # Request fanout histogram
system.tol2bus.snoop_fanout::underflows             0      0.00%      0.00% # Request fanout histogram
system.tol2bus.snoop_fanout::0                 677201     99.94%     99.94% # Request fanout histogram
system.tol2bus.snoop_fanout::1                    373      0.06%    100.00% # Request fanout histogram
system.tol2bus.snoop_fanout::2                      2      0.00%    100.00% # Request fanout histogram
system.tol2bus.snoop_fanout::overflows              0      0.00%    100.00% # Request fanout histogram
system.tol2bus.snoop_fanout::min_value              0                       # Request fanout histogram
system.tol2bus.snoop_fanout::max_value              2                       # Request fanout histogram
system.tol2bus.snoop_fanout::total             677576                       # Request fanout histogram
system.tol2bus.power_state.pwrStateResidencyTicks::UNDEFINED 162001515000                       # Cumulative time (in ticks) in various power states
system.tol2bus.reqLayer0.occupancy        21102149291                       # Layer occupancy (ticks)
system.tol2bus.reqLayer0.utilization             13.0                       # Layer utilization (%)
system.tol2bus.respLayer0.occupancy           4554000                       # Layer occupancy (ticks)
system.tol2bus.respLayer0.utilization             0.0                       # Layer utilization (%)
system.tol2bus.respLayer1.occupancy       20903092998                       # Layer occupancy (ticks)
system.tol2bus.respLayer1.utilization            12.9                       # Layer utilization (%)
system.voltage_domain.voltage                       1                       # Voltage in Volts

---------- End Simulation Statistics   ----------
