
---------- Begin Simulation Statistics ----------
final_tick                                   75373000                       # Number of ticks from beginning of simulation (restored from checkpoints and never reset)
host_inst_rate                                  68767                       # Simulator instruction rate (inst/s)
host_mem_usage                                 657004                       # Number of bytes of host memory used
host_op_rate                                    81878                       # Simulator op (including micro ops) rate (op/s)
host_seconds                                     0.52                       # Real time elapsed on the host
host_tick_rate                              146039338                       # Simulator tick rate (ticks/s)
sim_freq                                 1000000000000                       # Frequency of simulated ticks
sim_insts                                       35400                       # Number of instructions simulated
sim_ops                                         42239                       # Number of ops (including micro ops) simulated
sim_seconds                                  0.000075                       # Number of seconds simulated
sim_ticks                                    75373000                       # Number of ticks simulated
system.cpu.committedInsts                       35400                       # Number of instructions committed
system.cpu.committedOps                         42239                       # Number of ops (including micro ops) committed
system.cpu.cpi                               2.129181                       # CPI: cycles per instruction
system.cpu.discardedOps                          2568                       # Number of ops (including micro ops) which were discarded before commit
system.cpu.idleCycles                           25143                       # Total number of cycles that the object has spent stopped
system.cpu.ipc                               0.469664                       # IPC: instructions per cycle
system.cpu.numCycles                            75373                       # number of cpu cycles simulated
system.cpu.numFetchSuspends                         0                       # Number of times Execute suspended instruction fetching
system.cpu.numWorkItemsCompleted                    0                       # number of work items this cpu completed
system.cpu.numWorkItemsStarted                      0                       # number of work items this cpu started
system.cpu.op_class_0::No_OpClass                   0      0.00%      0.00% # Class of committed instruction
system.cpu.op_class_0::IntAlu                   28379     67.19%     67.19% # Class of committed instruction
system.cpu.op_class_0::IntMult                    209      0.49%     67.68% # Class of committed instruction
system.cpu.op_class_0::IntDiv                       0      0.00%     67.68% # Class of committed instruction
system.cpu.op_class_0::FloatAdd                     0      0.00%     67.68% # Class of committed instruction
system.cpu.op_class_0::FloatCmp                     0      0.00%     67.68% # Class of committed instruction
system.cpu.op_class_0::FloatCvt                     0      0.00%     67.68% # Class of committed instruction
system.cpu.op_class_0::FloatMult                    0      0.00%     67.68% # Class of committed instruction
system.cpu.op_class_0::FloatMultAcc                 0      0.00%     67.68% # Class of committed instruction
system.cpu.op_class_0::FloatDiv                     0      0.00%     67.68% # Class of committed instruction
system.cpu.op_class_0::FloatMisc                    0      0.00%     67.68% # Class of committed instruction
system.cpu.op_class_0::FloatSqrt                    0      0.00%     67.68% # Class of committed instruction
system.cpu.op_class_0::SimdAdd                      0      0.00%     67.68% # Class of committed instruction
system.cpu.op_class_0::SimdAddAcc                   0      0.00%     67.68% # Class of committed instruction
system.cpu.op_class_0::SimdAlu                      0      0.00%     67.68% # Class of committed instruction
system.cpu.op_class_0::SimdCmp                      0      0.00%     67.68% # Class of committed instruction
system.cpu.op_class_0::SimdCvt                      0      0.00%     67.68% # Class of committed instruction
system.cpu.op_class_0::SimdMisc                     0      0.00%     67.68% # Class of committed instruction
system.cpu.op_class_0::SimdMult                     0      0.00%     67.68% # Class of committed instruction
system.cpu.op_class_0::SimdMultAcc                  0      0.00%     67.68% # Class of committed instruction
system.cpu.op_class_0::SimdShift                    0      0.00%     67.68% # Class of committed instruction
system.cpu.op_class_0::SimdShiftAcc                 0      0.00%     67.68% # Class of committed instruction
system.cpu.op_class_0::SimdDiv                      0      0.00%     67.68% # Class of committed instruction
system.cpu.op_class_0::SimdSqrt                     0      0.00%     67.68% # Class of committed instruction
system.cpu.op_class_0::SimdFloatAdd                 0      0.00%     67.68% # Class of committed instruction
system.cpu.op_class_0::SimdFloatAlu                 0      0.00%     67.68% # Class of committed instruction
system.cpu.op_class_0::SimdFloatCmp                 0      0.00%     67.68% # Class of committed instruction
system.cpu.op_class_0::SimdFloatCvt                 0      0.00%     67.68% # Class of committed instruction
system.cpu.op_class_0::SimdFloatDiv                 0      0.00%     67.68% # Class of committed instruction
system.cpu.op_class_0::SimdFloatMisc               21      0.05%     67.73% # Class of committed instruction
system.cpu.op_class_0::SimdFloatMult                0      0.00%     67.73% # Class of committed instruction
system.cpu.op_class_0::SimdFloatMultAcc             0      0.00%     67.73% # Class of committed instruction
system.cpu.op_class_0::SimdFloatSqrt                0      0.00%     67.73% # Class of committed instruction
system.cpu.op_class_0::SimdReduceAdd                0      0.00%     67.73% # Class of committed instruction
system.cpu.op_class_0::SimdReduceAlu                0      0.00%     67.73% # Class of committed instruction
system.cpu.op_class_0::SimdReduceCmp                0      0.00%     67.73% # Class of committed instruction
system.cpu.op_class_0::SimdFloatReduceAdd            0      0.00%     67.73% # Class of committed instruction
system.cpu.op_class_0::SimdFloatReduceCmp            0      0.00%     67.73% # Class of committed instruction
system.cpu.op_class_0::SimdAes                      0      0.00%     67.73% # Class of committed instruction
system.cpu.op_class_0::SimdAesMix                   0      0.00%     67.73% # Class of committed instruction
system.cpu.op_class_0::SimdSha1Hash                 0      0.00%     67.73% # Class of committed instruction
system.cpu.op_class_0::SimdSha1Hash2                0      0.00%     67.73% # Class of committed instruction
system.cpu.op_class_0::SimdSha256Hash               0      0.00%     67.73% # Class of committed instruction
system.cpu.op_class_0::SimdSha256Hash2              0      0.00%     67.73% # Class of committed instruction
system.cpu.op_class_0::SimdShaSigma2                0      0.00%     67.73% # Class of committed instruction
system.cpu.op_class_0::SimdShaSigma3                0      0.00%     67.73% # Class of committed instruction
system.cpu.op_class_0::SimdPredAlu                  0      0.00%     67.73% # Class of committed instruction
system.cpu.op_class_0::MemRead                   7218     17.09%     84.82% # Class of committed instruction
system.cpu.op_class_0::MemWrite                  6412     15.18%    100.00% # Class of committed instruction
system.cpu.op_class_0::FloatMemRead                 0      0.00%    100.00% # Class of committed instruction
system.cpu.op_class_0::FloatMemWrite                0      0.00%    100.00% # Class of committed instruction
system.cpu.op_class_0::IprAccess                    0      0.00%    100.00% # Class of committed instruction
system.cpu.op_class_0::InstPrefetch                 0      0.00%    100.00% # Class of committed instruction
system.cpu.op_class_0::total                    42239                       # Class of committed instruction
system.cpu.tickCycles                           50230                       # Number of cycles that the object actually ticked
system.cpu.workload.numSyscalls                    23                       # Number of system calls
system.membus.snoop_filter.hit_multi_requests           18                       # Number of requests hitting in the snoop filter with multiple (>1) holders of the requested data.
system.membus.snoop_filter.hit_multi_snoops            0                       # Number of snoops hitting in the snoop filter with multiple (>1) holders of the requested data.
system.membus.snoop_filter.hit_single_requests          262                       # Number of requests hitting in the snoop filter with a single holder of the requested data.
system.membus.snoop_filter.hit_single_snoops            0                       # Number of snoops hitting in the snoop filter with a single holder of the requested data.
system.membus.snoop_filter.tot_requests           997                       # Total number of requests made to the snoop filter.
system.membus.snoop_filter.tot_snoops               0                       # Total number of snoops made to the snoop filter.
system.clk_domain.clock                           500                       # Clock period in ticks
system.cpu.branchPred.lookups                    9393                       # Number of BP lookups
system.cpu.branchPred.condPredicted              6277                       # Number of conditional branches predicted
system.cpu.branchPred.condIncorrect               840                       # Number of conditional branches incorrect
system.cpu.branchPred.BTBLookups                 3794                       # Number of BTB lookups
system.cpu.branchPred.BTBHits                    2689                       # Number of BTB hits
system.cpu.branchPred.BTBHitPct             70.875066                       # BTB Hit Percentage
system.cpu.branchPred.RASUsed                    1000                       # Number of times the RAS was used to get a target.
system.cpu.branchPred.RASIncorrect                  0                       # Number of incorrect RAS predictions.
system.cpu.branchPred.indirectLookups             435                       # Number of indirect predictor lookups.
system.cpu.branchPred.indirectHits                213                       # Number of indirect target hits.
system.cpu.branchPred.indirectMisses              222                       # Number of indirect misses.
system.cpu.branchPred.indirectMispredicted          100                       # Number of mispredicted indirect branches.
system.cpu.dcache.demand_hits::.cpu.data        13372                       # number of demand (read+write) hits
system.cpu.dcache.demand_hits::total            13372                       # number of demand (read+write) hits
system.cpu.dcache.overall_hits::.cpu.data        13400                       # number of overall hits
system.cpu.dcache.overall_hits::total           13400                       # number of overall hits
system.cpu.dcache.demand_misses::.cpu.data          236                       # number of demand (read+write) misses
system.cpu.dcache.demand_misses::total            236                       # number of demand (read+write) misses
system.cpu.dcache.overall_misses::.cpu.data          250                       # number of overall misses
system.cpu.dcache.overall_misses::total           250                       # number of overall misses
system.cpu.dcache.demand_miss_latency::.cpu.data     12534000                       # number of demand (read+write) miss cycles
system.cpu.dcache.demand_miss_latency::total     12534000                       # number of demand (read+write) miss cycles
system.cpu.dcache.overall_miss_latency::.cpu.data     12534000                       # number of overall miss cycles
system.cpu.dcache.overall_miss_latency::total     12534000                       # number of overall miss cycles
system.cpu.dcache.demand_accesses::.cpu.data        13608                       # number of demand (read+write) accesses
system.cpu.dcache.demand_accesses::total        13608                       # number of demand (read+write) accesses
system.cpu.dcache.overall_accesses::.cpu.data        13650                       # number of overall (read+write) accesses
system.cpu.dcache.overall_accesses::total        13650                       # number of overall (read+write) accesses
system.cpu.dcache.demand_miss_rate::.cpu.data     0.017343                       # miss rate for demand accesses
system.cpu.dcache.demand_miss_rate::total     0.017343                       # miss rate for demand accesses
system.cpu.dcache.overall_miss_rate::.cpu.data     0.018315                       # miss rate for overall accesses
system.cpu.dcache.overall_miss_rate::total     0.018315                       # miss rate for overall accesses
system.cpu.dcache.demand_avg_miss_latency::.cpu.data 53110.169492                       # average overall miss latency
system.cpu.dcache.demand_avg_miss_latency::total 53110.169492                       # average overall miss latency
system.cpu.dcache.overall_avg_miss_latency::.cpu.data        50136                       # average overall miss latency
system.cpu.dcache.overall_avg_miss_latency::total        50136                       # average overall miss latency
system.cpu.dcache.blocked_cycles::no_mshrs            0                       # number of cycles access was blocked
system.cpu.dcache.blocked_cycles::no_targets            0                       # number of cycles access was blocked
system.cpu.dcache.blocked::no_mshrs                 0                       # number of cycles access was blocked
system.cpu.dcache.blocked::no_targets               0                       # number of cycles access was blocked
system.cpu.dcache.avg_blocked_cycles::no_mshrs          nan                       # average number of cycles each access was blocked
system.cpu.dcache.avg_blocked_cycles::no_targets          nan                       # average number of cycles each access was blocked
system.cpu.dcache.writebacks::.writebacks            1                       # number of writebacks
system.cpu.dcache.writebacks::total                 1                       # number of writebacks
system.cpu.dcache.demand_mshr_hits::.cpu.data           55                       # number of demand (read+write) MSHR hits
system.cpu.dcache.demand_mshr_hits::total           55                       # number of demand (read+write) MSHR hits
system.cpu.dcache.overall_mshr_hits::.cpu.data           55                       # number of overall MSHR hits
system.cpu.dcache.overall_mshr_hits::total           55                       # number of overall MSHR hits
system.cpu.dcache.demand_mshr_misses::.cpu.data          181                       # number of demand (read+write) MSHR misses
system.cpu.dcache.demand_mshr_misses::total          181                       # number of demand (read+write) MSHR misses
system.cpu.dcache.overall_mshr_misses::.cpu.data          191                       # number of overall MSHR misses
system.cpu.dcache.overall_mshr_misses::total          191                       # number of overall MSHR misses
system.cpu.dcache.demand_mshr_miss_latency::.cpu.data      9356000                       # number of demand (read+write) MSHR miss cycles
system.cpu.dcache.demand_mshr_miss_latency::total      9356000                       # number of demand (read+write) MSHR miss cycles
system.cpu.dcache.overall_mshr_miss_latency::.cpu.data      9904500                       # number of overall MSHR miss cycles
system.cpu.dcache.overall_mshr_miss_latency::total      9904500                       # number of overall MSHR miss cycles
system.cpu.dcache.demand_mshr_miss_rate::.cpu.data     0.013301                       # mshr miss rate for demand accesses
system.cpu.dcache.demand_mshr_miss_rate::total     0.013301                       # mshr miss rate for demand accesses
system.cpu.dcache.overall_mshr_miss_rate::.cpu.data     0.013993                       # mshr miss rate for overall accesses
system.cpu.dcache.overall_mshr_miss_rate::total     0.013993                       # mshr miss rate for overall accesses
system.cpu.dcache.demand_avg_mshr_miss_latency::.cpu.data 51690.607735                       # average overall mshr miss latency
system.cpu.dcache.demand_avg_mshr_miss_latency::total 51690.607735                       # average overall mshr miss latency
system.cpu.dcache.overall_avg_mshr_miss_latency::.cpu.data 51856.020942                       # average overall mshr miss latency
system.cpu.dcache.overall_avg_mshr_miss_latency::total 51856.020942                       # average overall mshr miss latency
system.cpu.dcache.replacements                      4                       # number of replacements
system.cpu.dcache.ReadReq_hits::.cpu.data         7264                       # number of ReadReq hits
system.cpu.dcache.ReadReq_hits::total            7264                       # number of ReadReq hits
system.cpu.dcache.ReadReq_misses::.cpu.data          113                       # number of ReadReq misses
system.cpu.dcache.ReadReq_misses::total           113                       # number of ReadReq misses
system.cpu.dcache.ReadReq_miss_latency::.cpu.data      6139000                       # number of ReadReq miss cycles
system.cpu.dcache.ReadReq_miss_latency::total      6139000                       # number of ReadReq miss cycles
system.cpu.dcache.ReadReq_accesses::.cpu.data         7377                       # number of ReadReq accesses(hits+misses)
system.cpu.dcache.ReadReq_accesses::total         7377                       # number of ReadReq accesses(hits+misses)
system.cpu.dcache.ReadReq_miss_rate::.cpu.data     0.015318                       # miss rate for ReadReq accesses
system.cpu.dcache.ReadReq_miss_rate::total     0.015318                       # miss rate for ReadReq accesses
system.cpu.dcache.ReadReq_avg_miss_latency::.cpu.data 54327.433628                       # average ReadReq miss latency
system.cpu.dcache.ReadReq_avg_miss_latency::total 54327.433628                       # average ReadReq miss latency
system.cpu.dcache.ReadReq_mshr_hits::.cpu.data            8                       # number of ReadReq MSHR hits
system.cpu.dcache.ReadReq_mshr_hits::total            8                       # number of ReadReq MSHR hits
system.cpu.dcache.ReadReq_mshr_misses::.cpu.data          105                       # number of ReadReq MSHR misses
system.cpu.dcache.ReadReq_mshr_misses::total          105                       # number of ReadReq MSHR misses
system.cpu.dcache.ReadReq_mshr_miss_latency::.cpu.data      5512000                       # number of ReadReq MSHR miss cycles
system.cpu.dcache.ReadReq_mshr_miss_latency::total      5512000                       # number of ReadReq MSHR miss cycles
system.cpu.dcache.ReadReq_mshr_miss_rate::.cpu.data     0.014233                       # mshr miss rate for ReadReq accesses
system.cpu.dcache.ReadReq_mshr_miss_rate::total     0.014233                       # mshr miss rate for ReadReq accesses
system.cpu.dcache.ReadReq_avg_mshr_miss_latency::.cpu.data 52495.238095                       # average ReadReq mshr miss latency
system.cpu.dcache.ReadReq_avg_mshr_miss_latency::total 52495.238095                       # average ReadReq mshr miss latency
system.cpu.dcache.WriteReq_hits::.cpu.data         6108                       # number of WriteReq hits
system.cpu.dcache.WriteReq_hits::total           6108                       # number of WriteReq hits
system.cpu.dcache.WriteReq_misses::.cpu.data          123                       # number of WriteReq misses
system.cpu.dcache.WriteReq_misses::total          123                       # number of WriteReq misses
system.cpu.dcache.WriteReq_miss_latency::.cpu.data      6395000                       # number of WriteReq miss cycles
system.cpu.dcache.WriteReq_miss_latency::total      6395000                       # number of WriteReq miss cycles
system.cpu.dcache.WriteReq_accesses::.cpu.data         6231                       # number of WriteReq accesses(hits+misses)
system.cpu.dcache.WriteReq_accesses::total         6231                       # number of WriteReq accesses(hits+misses)
system.cpu.dcache.WriteReq_miss_rate::.cpu.data     0.019740                       # miss rate for WriteReq accesses
system.cpu.dcache.WriteReq_miss_rate::total     0.019740                       # miss rate for WriteReq accesses
system.cpu.dcache.WriteReq_avg_miss_latency::.cpu.data 51991.869919                       # average WriteReq miss latency
system.cpu.dcache.WriteReq_avg_miss_latency::total 51991.869919                       # average WriteReq miss latency
system.cpu.dcache.WriteReq_mshr_hits::.cpu.data           47                       # number of WriteReq MSHR hits
system.cpu.dcache.WriteReq_mshr_hits::total           47                       # number of WriteReq MSHR hits
system.cpu.dcache.WriteReq_mshr_misses::.cpu.data           76                       # number of WriteReq MSHR misses
system.cpu.dcache.WriteReq_mshr_misses::total           76                       # number of WriteReq MSHR misses
system.cpu.dcache.WriteReq_mshr_miss_latency::.cpu.data      3844000                       # number of WriteReq MSHR miss cycles
system.cpu.dcache.WriteReq_mshr_miss_latency::total      3844000                       # number of WriteReq MSHR miss cycles
system.cpu.dcache.WriteReq_mshr_miss_rate::.cpu.data     0.012197                       # mshr miss rate for WriteReq accesses
system.cpu.dcache.WriteReq_mshr_miss_rate::total     0.012197                       # mshr miss rate for WriteReq accesses
system.cpu.dcache.WriteReq_avg_mshr_miss_latency::.cpu.data 50578.947368                       # average WriteReq mshr miss latency
system.cpu.dcache.WriteReq_avg_mshr_miss_latency::total 50578.947368                       # average WriteReq mshr miss latency
system.cpu.dcache.SoftPFReq_hits::.cpu.data           28                       # number of SoftPFReq hits
system.cpu.dcache.SoftPFReq_hits::total            28                       # number of SoftPFReq hits
system.cpu.dcache.SoftPFReq_misses::.cpu.data           14                       # number of SoftPFReq misses
system.cpu.dcache.SoftPFReq_misses::total           14                       # number of SoftPFReq misses
system.cpu.dcache.SoftPFReq_accesses::.cpu.data           42                       # number of SoftPFReq accesses(hits+misses)
system.cpu.dcache.SoftPFReq_accesses::total           42                       # number of SoftPFReq accesses(hits+misses)
system.cpu.dcache.SoftPFReq_miss_rate::.cpu.data     0.333333                       # miss rate for SoftPFReq accesses
system.cpu.dcache.SoftPFReq_miss_rate::total     0.333333                       # miss rate for SoftPFReq accesses
system.cpu.dcache.SoftPFReq_mshr_misses::.cpu.data           10                       # number of SoftPFReq MSHR misses
system.cpu.dcache.SoftPFReq_mshr_misses::total           10                       # number of SoftPFReq MSHR misses
system.cpu.dcache.SoftPFReq_mshr_miss_latency::.cpu.data       548500                       # number of SoftPFReq MSHR miss cycles
system.cpu.dcache.SoftPFReq_mshr_miss_latency::total       548500                       # number of SoftPFReq MSHR miss cycles
system.cpu.dcache.SoftPFReq_mshr_miss_rate::.cpu.data     0.238095                       # mshr miss rate for SoftPFReq accesses
system.cpu.dcache.SoftPFReq_mshr_miss_rate::total     0.238095                       # mshr miss rate for SoftPFReq accesses
system.cpu.dcache.SoftPFReq_avg_mshr_miss_latency::.cpu.data        54850                       # average SoftPFReq mshr miss latency
system.cpu.dcache.SoftPFReq_avg_mshr_miss_latency::total        54850                       # average SoftPFReq mshr miss latency
system.cpu.dcache.LoadLockedReq_hits::.cpu.data           79                       # number of LoadLockedReq hits
system.cpu.dcache.LoadLockedReq_hits::total           79                       # number of LoadLockedReq hits
system.cpu.dcache.LoadLockedReq_misses::.cpu.data            1                       # number of LoadLockedReq misses
system.cpu.dcache.LoadLockedReq_misses::total            1                       # number of LoadLockedReq misses
system.cpu.dcache.LoadLockedReq_miss_latency::.cpu.data        47000                       # number of LoadLockedReq miss cycles
system.cpu.dcache.LoadLockedReq_miss_latency::total        47000                       # number of LoadLockedReq miss cycles
system.cpu.dcache.LoadLockedReq_accesses::.cpu.data           80                       # number of LoadLockedReq accesses(hits+misses)
system.cpu.dcache.LoadLockedReq_accesses::total           80                       # number of LoadLockedReq accesses(hits+misses)
system.cpu.dcache.LoadLockedReq_miss_rate::.cpu.data     0.012500                       # miss rate for LoadLockedReq accesses
system.cpu.dcache.LoadLockedReq_miss_rate::total     0.012500                       # miss rate for LoadLockedReq accesses
system.cpu.dcache.LoadLockedReq_avg_miss_latency::.cpu.data        47000                       # average LoadLockedReq miss latency
system.cpu.dcache.LoadLockedReq_avg_miss_latency::total        47000                       # average LoadLockedReq miss latency
system.cpu.dcache.LoadLockedReq_mshr_misses::.cpu.data            1                       # number of LoadLockedReq MSHR misses
system.cpu.dcache.LoadLockedReq_mshr_misses::total            1                       # number of LoadLockedReq MSHR misses
system.cpu.dcache.LoadLockedReq_mshr_miss_latency::.cpu.data        44500                       # number of LoadLockedReq MSHR miss cycles
system.cpu.dcache.LoadLockedReq_mshr_miss_latency::total        44500                       # number of LoadLockedReq MSHR miss cycles
system.cpu.dcache.LoadLockedReq_mshr_miss_rate::.cpu.data     0.012500                       # mshr miss rate for LoadLockedReq accesses
system.cpu.dcache.LoadLockedReq_mshr_miss_rate::total     0.012500                       # mshr miss rate for LoadLockedReq accesses
system.cpu.dcache.LoadLockedReq_avg_mshr_miss_latency::.cpu.data        44500                       # average LoadLockedReq mshr miss latency
system.cpu.dcache.LoadLockedReq_avg_mshr_miss_latency::total        44500                       # average LoadLockedReq mshr miss latency
system.cpu.dcache.StoreCondReq_hits::.cpu.data           80                       # number of StoreCondReq hits
system.cpu.dcache.StoreCondReq_hits::total           80                       # number of StoreCondReq hits
system.cpu.dcache.StoreCondReq_accesses::.cpu.data           80                       # number of StoreCondReq accesses(hits+misses)
system.cpu.dcache.StoreCondReq_accesses::total           80                       # number of StoreCondReq accesses(hits+misses)
system.cpu.dcache.power_state.pwrStateResidencyTicks::UNDEFINED     75373000                       # Cumulative time (in ticks) in various power states
system.cpu.dcache.tags.tagsinuse           134.228630                       # Cycle average of tags in use
system.cpu.dcache.tags.total_refs               13751                       # Total number of references to valid blocks.
system.cpu.dcache.tags.sampled_refs               192                       # Sample count of references to valid blocks.
system.cpu.dcache.tags.avg_refs             71.619792                       # Average number of references to valid blocks.
system.cpu.dcache.tags.warmup_cycle            138000                       # Cycle when the warmup percentage was hit.
system.cpu.dcache.tags.occ_blocks::.cpu.data   134.228630                       # Average occupied blocks per requestor
system.cpu.dcache.tags.occ_percent::.cpu.data     0.131083                       # Average percentage of cache occupancy
system.cpu.dcache.tags.occ_percent::total     0.131083                       # Average percentage of cache occupancy
system.cpu.dcache.tags.occ_task_id_blocks::1024          188                       # Occupied blocks per task id
system.cpu.dcache.tags.age_task_id_blocks_1024::0           15                       # Occupied blocks per task id
system.cpu.dcache.tags.age_task_id_blocks_1024::1          173                       # Occupied blocks per task id
system.cpu.dcache.tags.occ_task_id_percent::1024     0.183594                       # Percentage of cache occupancy per task id
system.cpu.dcache.tags.tag_accesses             27812                       # Number of tag accesses
system.cpu.dcache.tags.data_accesses            27812                       # Number of data accesses
system.cpu.dcache.tags.power_state.pwrStateResidencyTicks::UNDEFINED     75373000                       # Cumulative time (in ticks) in various power states
system.cpu.dtb.instHits                             0                       # ITB inst hits
system.cpu.dtb.instMisses                           0                       # ITB inst misses
system.cpu.dtb.readHits                             0                       # DTB read hits
system.cpu.dtb.readMisses                           0                       # DTB read misses
system.cpu.dtb.writeHits                            0                       # DTB write hits
system.cpu.dtb.writeMisses                          0                       # DTB write misses
system.cpu.dtb.inserts                              0                       # Number of times an entry is inserted into the TLB
system.cpu.dtb.flushTlb                             0                       # Number of times complete TLB was flushed
system.cpu.dtb.flushTlbMva                          0                       # Number of times TLB was flushed by MVA
system.cpu.dtb.flushTlbMvaAsid                      0                       # Number of times TLB was flushed by MVA & ASID
system.cpu.dtb.flushTlbAsid                         0                       # Number of times TLB was flushed by ASID
system.cpu.dtb.flushedEntries                       0                       # Number of entries that have been flushed from TLB
system.cpu.dtb.alignFaults                          0                       # Number of TLB faults due to alignment restrictions
system.cpu.dtb.prefetchFaults                       0                       # Number of TLB faults due to prefetch
system.cpu.dtb.domainFaults                         0                       # Number of TLB faults due to domain restrictions
system.cpu.dtb.permsFaults                          0                       # Number of TLB faults due to permissions restrictions
system.cpu.dtb.readAccesses                         0                       # DTB read accesses
system.cpu.dtb.writeAccesses                        0                       # DTB write accesses
system.cpu.dtb.instAccesses                         0                       # ITB inst accesses
system.cpu.dtb.hits                                 0                       # Total TLB (inst and data) hits
system.cpu.dtb.misses                               0                       # Total TLB (inst and data) misses
system.cpu.dtb.accesses                             0                       # Total TLB (inst and data) accesses
system.cpu.dtb.stage2_mmu.stage2_tlb.instHits            0                       # ITB inst hits
system.cpu.dtb.stage2_mmu.stage2_tlb.instMisses            0                       # ITB inst misses
system.cpu.dtb.stage2_mmu.stage2_tlb.readHits            0                       # DTB read hits
system.cpu.dtb.stage2_mmu.stage2_tlb.readMisses            0                       # DTB read misses
system.cpu.dtb.stage2_mmu.stage2_tlb.writeHits            0                       # DTB write hits
system.cpu.dtb.stage2_mmu.stage2_tlb.writeMisses            0                       # DTB write misses
system.cpu.dtb.stage2_mmu.stage2_tlb.inserts            0                       # Number of times an entry is inserted into the TLB
system.cpu.dtb.stage2_mmu.stage2_tlb.flushTlb            0                       # Number of times complete TLB was flushed
system.cpu.dtb.stage2_mmu.stage2_tlb.flushTlbMva            0                       # Number of times TLB was flushed by MVA
system.cpu.dtb.stage2_mmu.stage2_tlb.flushTlbMvaAsid            0                       # Number of times TLB was flushed by MVA & ASID
system.cpu.dtb.stage2_mmu.stage2_tlb.flushTlbAsid            0                       # Number of times TLB was flushed by ASID
system.cpu.dtb.stage2_mmu.stage2_tlb.flushedEntries            0                       # Number of entries that have been flushed from TLB
system.cpu.dtb.stage2_mmu.stage2_tlb.alignFaults            0                       # Number of TLB faults due to alignment restrictions
system.cpu.dtb.stage2_mmu.stage2_tlb.prefetchFaults            0                       # Number of TLB faults due to prefetch
system.cpu.dtb.stage2_mmu.stage2_tlb.domainFaults            0                       # Number of TLB faults due to domain restrictions
system.cpu.dtb.stage2_mmu.stage2_tlb.permsFaults            0                       # Number of TLB faults due to permissions restrictions
system.cpu.dtb.stage2_mmu.stage2_tlb.readAccesses            0                       # DTB read accesses
system.cpu.dtb.stage2_mmu.stage2_tlb.writeAccesses            0                       # DTB write accesses
system.cpu.dtb.stage2_mmu.stage2_tlb.instAccesses            0                       # ITB inst accesses
system.cpu.dtb.stage2_mmu.stage2_tlb.hits            0                       # Total TLB (inst and data) hits
system.cpu.dtb.stage2_mmu.stage2_tlb.misses            0                       # Total TLB (inst and data) misses
system.cpu.dtb.stage2_mmu.stage2_tlb.accesses            0                       # Total TLB (inst and data) accesses
system.cpu.dtb.stage2_mmu.stage2_tlb.walker.walks            0                       # Table walker walks requested
system.cpu.dtb.stage2_mmu.stage2_tlb.walker.requestOrigin_Requested::Data            0                       # Table walker requests started/completed, data/inst
system.cpu.dtb.stage2_mmu.stage2_tlb.walker.requestOrigin_Requested::Inst            0                       # Table walker requests started/completed, data/inst
system.cpu.dtb.stage2_mmu.stage2_tlb.walker.requestOrigin_Requested::total            0                       # Table walker requests started/completed, data/inst
system.cpu.dtb.stage2_mmu.stage2_tlb.walker.requestOrigin_Completed::Data            0                       # Table walker requests started/completed, data/inst
system.cpu.dtb.stage2_mmu.stage2_tlb.walker.requestOrigin_Completed::Inst            0                       # Table walker requests started/completed, data/inst
system.cpu.dtb.stage2_mmu.stage2_tlb.walker.requestOrigin_Completed::total            0                       # Table walker requests started/completed, data/inst
system.cpu.dtb.stage2_mmu.stage2_tlb.walker.requestOrigin::total            0                       # Table walker requests started/completed, data/inst
system.cpu.dtb.stage2_mmu.stage2_tlb.walker.power_state.pwrStateResidencyTicks::UNDEFINED     75373000                       # Cumulative time (in ticks) in various power states
system.cpu.dtb.walker.walks                         0                       # Table walker walks requested
system.cpu.dtb.walker.requestOrigin_Requested::Data            0                       # Table walker requests started/completed, data/inst
system.cpu.dtb.walker.requestOrigin_Requested::Inst            0                       # Table walker requests started/completed, data/inst
system.cpu.dtb.walker.requestOrigin_Requested::total            0                       # Table walker requests started/completed, data/inst
system.cpu.dtb.walker.requestOrigin_Completed::Data            0                       # Table walker requests started/completed, data/inst
system.cpu.dtb.walker.requestOrigin_Completed::Inst            0                       # Table walker requests started/completed, data/inst
system.cpu.dtb.walker.requestOrigin_Completed::total            0                       # Table walker requests started/completed, data/inst
system.cpu.dtb.walker.requestOrigin::total            0                       # Table walker requests started/completed, data/inst
system.cpu.dtb.walker.power_state.pwrStateResidencyTicks::UNDEFINED     75373000                       # Cumulative time (in ticks) in various power states
system.cpu.fetch2.intInstructions               24924                       # Number of integer instructions successfully decoded
system.cpu.fetch2.fpInstructions                    0                       # Number of floating point instructions successfully decoded
system.cpu.fetch2.vecInstructions                   0                       # Number of SIMD instructions successfully decoded
system.cpu.fetch2.loadInstructions               6237                       # Number of memory load instructions successfully decoded
system.cpu.fetch2.storeInstructions              3142                       # Number of memory store instructions successfully decoded
system.cpu.fetch2.amoInstructions                   0                       # Number of memory atomic instructions successfully decoded
system.cpu.icache.demand_hits::.cpu.inst        11375                       # number of demand (read+write) hits
system.cpu.icache.demand_hits::total            11375                       # number of demand (read+write) hits
system.cpu.icache.overall_hits::.cpu.inst        11375                       # number of overall hits
system.cpu.icache.overall_hits::total           11375                       # number of overall hits
system.cpu.icache.demand_misses::.cpu.inst          563                       # number of demand (read+write) misses
system.cpu.icache.demand_misses::total            563                       # number of demand (read+write) misses
system.cpu.icache.overall_misses::.cpu.inst          563                       # number of overall misses
system.cpu.icache.overall_misses::total           563                       # number of overall misses
system.cpu.icache.demand_miss_latency::.cpu.inst     27071000                       # number of demand (read+write) miss cycles
system.cpu.icache.demand_miss_latency::total     27071000                       # number of demand (read+write) miss cycles
system.cpu.icache.overall_miss_latency::.cpu.inst     27071000                       # number of overall miss cycles
system.cpu.icache.overall_miss_latency::total     27071000                       # number of overall miss cycles
system.cpu.icache.demand_accesses::.cpu.inst        11938                       # number of demand (read+write) accesses
system.cpu.icache.demand_accesses::total        11938                       # number of demand (read+write) accesses
system.cpu.icache.overall_accesses::.cpu.inst        11938                       # number of overall (read+write) accesses
system.cpu.icache.overall_accesses::total        11938                       # number of overall (read+write) accesses
system.cpu.icache.demand_miss_rate::.cpu.inst     0.047160                       # miss rate for demand accesses
system.cpu.icache.demand_miss_rate::total     0.047160                       # miss rate for demand accesses
system.cpu.icache.overall_miss_rate::.cpu.inst     0.047160                       # miss rate for overall accesses
system.cpu.icache.overall_miss_rate::total     0.047160                       # miss rate for overall accesses
system.cpu.icache.demand_avg_miss_latency::.cpu.inst 48083.481350                       # average overall miss latency
system.cpu.icache.demand_avg_miss_latency::total 48083.481350                       # average overall miss latency
system.cpu.icache.overall_avg_miss_latency::.cpu.inst 48083.481350                       # average overall miss latency
system.cpu.icache.overall_avg_miss_latency::total 48083.481350                       # average overall miss latency
system.cpu.icache.blocked_cycles::no_mshrs            0                       # number of cycles access was blocked
system.cpu.icache.blocked_cycles::no_targets            0                       # number of cycles access was blocked
system.cpu.icache.blocked::no_mshrs                 0                       # number of cycles access was blocked
system.cpu.icache.blocked::no_targets               0                       # number of cycles access was blocked
system.cpu.icache.avg_blocked_cycles::no_mshrs          nan                       # average number of cycles each access was blocked
system.cpu.icache.avg_blocked_cycles::no_targets          nan                       # average number of cycles each access was blocked
system.cpu.icache.writebacks::.writebacks          238                       # number of writebacks
system.cpu.icache.writebacks::total               238                       # number of writebacks
system.cpu.icache.demand_mshr_misses::.cpu.inst          563                       # number of demand (read+write) MSHR misses
system.cpu.icache.demand_mshr_misses::total          563                       # number of demand (read+write) MSHR misses
system.cpu.icache.overall_mshr_misses::.cpu.inst          563                       # number of overall MSHR misses
system.cpu.icache.overall_mshr_misses::total          563                       # number of overall MSHR misses
system.cpu.icache.demand_mshr_miss_latency::.cpu.inst     25752000                       # number of demand (read+write) MSHR miss cycles
system.cpu.icache.demand_mshr_miss_latency::total     25752000                       # number of demand (read+write) MSHR miss cycles
system.cpu.icache.overall_mshr_miss_latency::.cpu.inst     25752000                       # number of overall MSHR miss cycles
system.cpu.icache.overall_mshr_miss_latency::total     25752000                       # number of overall MSHR miss cycles
system.cpu.icache.demand_mshr_miss_rate::.cpu.inst     0.047160                       # mshr miss rate for demand accesses
system.cpu.icache.demand_mshr_miss_rate::total     0.047160                       # mshr miss rate for demand accesses
system.cpu.icache.overall_mshr_miss_rate::.cpu.inst     0.047160                       # mshr miss rate for overall accesses
system.cpu.icache.overall_mshr_miss_rate::total     0.047160                       # mshr miss rate for overall accesses
system.cpu.icache.demand_avg_mshr_miss_latency::.cpu.inst 45740.674956                       # average overall mshr miss latency
system.cpu.icache.demand_avg_mshr_miss_latency::total 45740.674956                       # average overall mshr miss latency
system.cpu.icache.overall_avg_mshr_miss_latency::.cpu.inst 45740.674956                       # average overall mshr miss latency
system.cpu.icache.overall_avg_mshr_miss_latency::total 45740.674956                       # average overall mshr miss latency
system.cpu.icache.replacements                    238                       # number of replacements
system.cpu.icache.ReadReq_hits::.cpu.inst        11375                       # number of ReadReq hits
system.cpu.icache.ReadReq_hits::total           11375                       # number of ReadReq hits
system.cpu.icache.ReadReq_misses::.cpu.inst          563                       # number of ReadReq misses
system.cpu.icache.ReadReq_misses::total           563                       # number of ReadReq misses
system.cpu.icache.ReadReq_miss_latency::.cpu.inst     27071000                       # number of ReadReq miss cycles
system.cpu.icache.ReadReq_miss_latency::total     27071000                       # number of ReadReq miss cycles
system.cpu.icache.ReadReq_accesses::.cpu.inst        11938                       # number of ReadReq accesses(hits+misses)
system.cpu.icache.ReadReq_accesses::total        11938                       # number of ReadReq accesses(hits+misses)
system.cpu.icache.ReadReq_miss_rate::.cpu.inst     0.047160                       # miss rate for ReadReq accesses
system.cpu.icache.ReadReq_miss_rate::total     0.047160                       # miss rate for ReadReq accesses
system.cpu.icache.ReadReq_avg_miss_latency::.cpu.inst 48083.481350                       # average ReadReq miss latency
system.cpu.icache.ReadReq_avg_miss_latency::total 48083.481350                       # average ReadReq miss latency
system.cpu.icache.ReadReq_mshr_misses::.cpu.inst          563                       # number of ReadReq MSHR misses
system.cpu.icache.ReadReq_mshr_misses::total          563                       # number of ReadReq MSHR misses
system.cpu.icache.ReadReq_mshr_miss_latency::.cpu.inst     25752000                       # number of ReadReq MSHR miss cycles
system.cpu.icache.ReadReq_mshr_miss_latency::total     25752000                       # number of ReadReq MSHR miss cycles
system.cpu.icache.ReadReq_mshr_miss_rate::.cpu.inst     0.047160                       # mshr miss rate for ReadReq accesses
system.cpu.icache.ReadReq_mshr_miss_rate::total     0.047160                       # mshr miss rate for ReadReq accesses
system.cpu.icache.ReadReq_avg_mshr_miss_latency::.cpu.inst 45740.674956                       # average ReadReq mshr miss latency
system.cpu.icache.ReadReq_avg_mshr_miss_latency::total 45740.674956                       # average ReadReq mshr miss latency
system.cpu.icache.power_state.pwrStateResidencyTicks::UNDEFINED     75373000                       # Cumulative time (in ticks) in various power states
system.cpu.icache.tags.tagsinuse           224.563698                       # Cycle average of tags in use
system.cpu.icache.tags.total_refs               11938                       # Total number of references to valid blocks.
system.cpu.icache.tags.sampled_refs               563                       # Sample count of references to valid blocks.
system.cpu.icache.tags.avg_refs             21.204263                       # Average number of references to valid blocks.
system.cpu.icache.tags.warmup_cycle             71000                       # Cycle when the warmup percentage was hit.
system.cpu.icache.tags.occ_blocks::.cpu.inst   224.563698                       # Average occupied blocks per requestor
system.cpu.icache.tags.occ_percent::.cpu.inst     0.438601                       # Average percentage of cache occupancy
system.cpu.icache.tags.occ_percent::total     0.438601                       # Average percentage of cache occupancy
system.cpu.icache.tags.occ_task_id_blocks::1024          325                       # Occupied blocks per task id
system.cpu.icache.tags.age_task_id_blocks_1024::0           52                       # Occupied blocks per task id
system.cpu.icache.tags.age_task_id_blocks_1024::1          273                       # Occupied blocks per task id
system.cpu.icache.tags.occ_task_id_percent::1024     0.634766                       # Percentage of cache occupancy per task id
system.cpu.icache.tags.tag_accesses             24439                       # Number of tag accesses
system.cpu.icache.tags.data_accesses            24439                       # Number of data accesses
system.cpu.icache.tags.power_state.pwrStateResidencyTicks::UNDEFINED     75373000                       # Cumulative time (in ticks) in various power states
system.cpu.itb.instHits                             0                       # ITB inst hits
system.cpu.itb.instMisses                           0                       # ITB inst misses
system.cpu.itb.readHits                             0                       # DTB read hits
system.cpu.itb.readMisses                           0                       # DTB read misses
system.cpu.itb.writeHits                            0                       # DTB write hits
system.cpu.itb.writeMisses                          0                       # DTB write misses
system.cpu.itb.inserts                              0                       # Number of times an entry is inserted into the TLB
system.cpu.itb.flushTlb                             0                       # Number of times complete TLB was flushed
system.cpu.itb.flushTlbMva                          0                       # Number of times TLB was flushed by MVA
system.cpu.itb.flushTlbMvaAsid                      0                       # Number of times TLB was flushed by MVA & ASID
system.cpu.itb.flushTlbAsid                         0                       # Number of times TLB was flushed by ASID
system.cpu.itb.flushedEntries                       0                       # Number of entries that have been flushed from TLB
system.cpu.itb.alignFaults                          0                       # Number of TLB faults due to alignment restrictions
system.cpu.itb.prefetchFaults                       0                       # Number of TLB faults due to prefetch
system.cpu.itb.domainFaults                         0                       # Number of TLB faults due to domain restrictions
system.cpu.itb.permsFaults                          0                       # Number of TLB faults due to permissions restrictions
system.cpu.itb.readAccesses                         0                       # DTB read accesses
system.cpu.itb.writeAccesses                        0                       # DTB write accesses
system.cpu.itb.instAccesses                         0                       # ITB inst accesses
system.cpu.itb.hits                                 0                       # Total TLB (inst and data) hits
system.cpu.itb.misses                               0                       # Total TLB (inst and data) misses
system.cpu.itb.accesses                             0                       # Total TLB (inst and data) accesses
system.cpu.itb.stage2_mmu.stage2_tlb.instHits            0                       # ITB inst hits
system.cpu.itb.stage2_mmu.stage2_tlb.instMisses            0                       # ITB inst misses
system.cpu.itb.stage2_mmu.stage2_tlb.readHits            0                       # DTB read hits
system.cpu.itb.stage2_mmu.stage2_tlb.readMisses            0                       # DTB read misses
system.cpu.itb.stage2_mmu.stage2_tlb.writeHits            0                       # DTB write hits
system.cpu.itb.stage2_mmu.stage2_tlb.writeMisses            0                       # DTB write misses
system.cpu.itb.stage2_mmu.stage2_tlb.inserts            0                       # Number of times an entry is inserted into the TLB
system.cpu.itb.stage2_mmu.stage2_tlb.flushTlb            0                       # Number of times complete TLB was flushed
system.cpu.itb.stage2_mmu.stage2_tlb.flushTlbMva            0                       # Number of times TLB was flushed by MVA
system.cpu.itb.stage2_mmu.stage2_tlb.flushTlbMvaAsid            0                       # Number of times TLB was flushed by MVA & ASID
system.cpu.itb.stage2_mmu.stage2_tlb.flushTlbAsid            0                       # Number of times TLB was flushed by ASID
system.cpu.itb.stage2_mmu.stage2_tlb.flushedEntries            0                       # Number of entries that have been flushed from TLB
system.cpu.itb.stage2_mmu.stage2_tlb.alignFaults            0                       # Number of TLB faults due to alignment restrictions
system.cpu.itb.stage2_mmu.stage2_tlb.prefetchFaults            0                       # Number of TLB faults due to prefetch
system.cpu.itb.stage2_mmu.stage2_tlb.domainFaults            0                       # Number of TLB faults due to domain restrictions
system.cpu.itb.stage2_mmu.stage2_tlb.permsFaults            0                       # Number of TLB faults due to permissions restrictions
system.cpu.itb.stage2_mmu.stage2_tlb.readAccesses            0                       # DTB read accesses
system.cpu.itb.stage2_mmu.stage2_tlb.writeAccesses            0                       # DTB write accesses
system.cpu.itb.stage2_mmu.stage2_tlb.instAccesses            0                       # ITB inst accesses
system.cpu.itb.stage2_mmu.stage2_tlb.hits            0                       # Total TLB (inst and data) hits
system.cpu.itb.stage2_mmu.stage2_tlb.misses            0                       # Total TLB (inst and data) misses
system.cpu.itb.stage2_mmu.stage2_tlb.accesses            0                       # Total TLB (inst and data) accesses
system.cpu.itb.stage2_mmu.stage2_tlb.walker.walks            0                       # Table walker walks requested
system.cpu.itb.stage2_mmu.stage2_tlb.walker.requestOrigin_Requested::Data            0                       # Table walker requests started/completed, data/inst
system.cpu.itb.stage2_mmu.stage2_tlb.walker.requestOrigin_Requested::Inst            0                       # Table walker requests started/completed, data/inst
system.cpu.itb.stage2_mmu.stage2_tlb.walker.requestOrigin_Requested::total            0                       # Table walker requests started/completed, data/inst
system.cpu.itb.stage2_mmu.stage2_tlb.walker.requestOrigin_Completed::Data            0                       # Table walker requests started/completed, data/inst
system.cpu.itb.stage2_mmu.stage2_tlb.walker.requestOrigin_Completed::Inst            0                       # Table walker requests started/completed, data/inst
system.cpu.itb.stage2_mmu.stage2_tlb.walker.requestOrigin_Completed::total            0                       # Table walker requests started/completed, data/inst
system.cpu.itb.stage2_mmu.stage2_tlb.walker.requestOrigin::total            0                       # Table walker requests started/completed, data/inst
system.cpu.itb.stage2_mmu.stage2_tlb.walker.power_state.pwrStateResidencyTicks::UNDEFINED     75373000                       # Cumulative time (in ticks) in various power states
system.cpu.itb.walker.walks                         0                       # Table walker walks requested
system.cpu.itb.walker.requestOrigin_Requested::Data            0                       # Table walker requests started/completed, data/inst
system.cpu.itb.walker.requestOrigin_Requested::Inst            0                       # Table walker requests started/completed, data/inst
system.cpu.itb.walker.requestOrigin_Requested::total            0                       # Table walker requests started/completed, data/inst
system.cpu.itb.walker.requestOrigin_Completed::Data            0                       # Table walker requests started/completed, data/inst
system.cpu.itb.walker.requestOrigin_Completed::Inst            0                       # Table walker requests started/completed, data/inst
system.cpu.itb.walker.requestOrigin_Completed::total            0                       # Table walker requests started/completed, data/inst
system.cpu.itb.walker.requestOrigin::total            0                       # Table walker requests started/completed, data/inst
system.cpu.itb.walker.power_state.pwrStateResidencyTicks::UNDEFINED     75373000                       # Cumulative time (in ticks) in various power states
system.cpu.power_state.pwrStateResidencyTicks::ON     75373000                       # Cumulative time (in ticks) in various power states
system.cpu.thread_0.numInsts                    35400                       # Number of Instructions committed
system.cpu.thread_0.numOps                      42239                       # Number of Ops committed
system.cpu.thread_0.numMemRefs                      0                       # Number of Memory References
system.cpu_clk_domain.clock                      1000                       # Clock period in ticks
system.cpu_voltage_domain.voltage                   1                       # Voltage in Volts
system.mem_ctrls.avgPriority_.writebacks::samples       154.00                       # Average QoS priority value for accepted requests
system.mem_ctrls.avgPriority_.cpu.inst::samples       467.00                       # Average QoS priority value for accepted requests
system.mem_ctrls.avgPriority_.cpu.data::samples       191.00                       # Average QoS priority value for accepted requests
system.mem_ctrls.priorityMinLatency      0.000000017492                       # per QoS priority minimum request to response latency (s)
system.mem_ctrls.priorityMaxLatency      0.000099893652                       # per QoS priority maximum request to response latency (s)
system.mem_ctrls.numReadWriteTurnArounds            6                       # Number of turnarounds from READ to WRITE
system.mem_ctrls.numWriteReadTurnArounds            6                       # Number of turnarounds from WRITE to READ
system.mem_ctrls.numStayReadState                1551                       # Number of times bus staying in READ state
system.mem_ctrls.numStayWriteState                 97                       # Number of times bus staying in WRITE state
system.mem_ctrls.readReqs                         755                       # Number of read requests accepted
system.mem_ctrls.writeReqs                        223                       # Number of write requests accepted
system.mem_ctrls.readBursts                       755                       # Number of controller read bursts, including those serviced by the write queue
system.mem_ctrls.writeBursts                      223                       # Number of controller write bursts, including those merged in the write queue
system.mem_ctrls.servicedByWrQ                     97                       # Number of controller read bursts serviced by the write queue
system.mem_ctrls.mergedWrBursts                    69                       # Number of controller write bursts merged with an existing one
system.mem_ctrls.neitherReadNorWriteReqs            0                       # Number of requests that are neither read nor write
system.mem_ctrls.avgRdQLen                       1.07                       # Average read queue length when enqueuing
system.mem_ctrls.avgWrQLen                      39.38                       # Average write queue length when enqueuing
system.mem_ctrls.numRdRetry                         0                       # Number of times read queue was full causing retry
system.mem_ctrls.numWrRetry                         0                       # Number of times write queue was full causing retry
system.mem_ctrls.readPktSize::0                     0                       # Read request sizes (log2)
system.mem_ctrls.readPktSize::1                     0                       # Read request sizes (log2)
system.mem_ctrls.readPktSize::2                     0                       # Read request sizes (log2)
system.mem_ctrls.readPktSize::3                     0                       # Read request sizes (log2)
system.mem_ctrls.readPktSize::4                     0                       # Read request sizes (log2)
system.mem_ctrls.readPktSize::5                     0                       # Read request sizes (log2)
system.mem_ctrls.readPktSize::6                   755                       # Read request sizes (log2)
system.mem_ctrls.writePktSize::0                    0                       # Write request sizes (log2)
system.mem_ctrls.writePktSize::1                    0                       # Write request sizes (log2)
system.mem_ctrls.writePktSize::2                    0                       # Write request sizes (log2)
system.mem_ctrls.writePktSize::3                    0                       # Write request sizes (log2)
system.mem_ctrls.writePktSize::4                    0                       # Write request sizes (log2)
system.mem_ctrls.writePktSize::5                    0                       # Write request sizes (log2)
system.mem_ctrls.writePktSize::6                  223                       # Write request sizes (log2)
system.mem_ctrls.rdQLenPdf::0                     568                       # What read queue length does an incoming req see
system.mem_ctrls.rdQLenPdf::1                      85                       # What read queue length does an incoming req see
system.mem_ctrls.rdQLenPdf::2                       5                       # What read queue length does an incoming req see
system.mem_ctrls.rdQLenPdf::3                       0                       # What read queue length does an incoming req see
system.mem_ctrls.rdQLenPdf::4                       0                       # What read queue length does an incoming req see
system.mem_ctrls.rdQLenPdf::5                       0                       # What read queue length does an incoming req see
system.mem_ctrls.rdQLenPdf::6                       0                       # What read queue length does an incoming req see
system.mem_ctrls.rdQLenPdf::7                       0                       # What read queue length does an incoming req see
system.mem_ctrls.rdQLenPdf::8                       0                       # What read queue length does an incoming req see
system.mem_ctrls.rdQLenPdf::9                       0                       # What read queue length does an incoming req see
system.mem_ctrls.rdQLenPdf::10                      0                       # What read queue length does an incoming req see
system.mem_ctrls.rdQLenPdf::11                      0                       # What read queue length does an incoming req see
system.mem_ctrls.rdQLenPdf::12                      0                       # What read queue length does an incoming req see
system.mem_ctrls.rdQLenPdf::13                      0                       # What read queue length does an incoming req see
system.mem_ctrls.rdQLenPdf::14                      0                       # What read queue length does an incoming req see
system.mem_ctrls.rdQLenPdf::15                      0                       # What read queue length does an incoming req see
system.mem_ctrls.rdQLenPdf::16                      0                       # What read queue length does an incoming req see
system.mem_ctrls.rdQLenPdf::17                      0                       # What read queue length does an incoming req see
system.mem_ctrls.rdQLenPdf::18                      0                       # What read queue length does an incoming req see
system.mem_ctrls.rdQLenPdf::19                      0                       # What read queue length does an incoming req see
system.mem_ctrls.rdQLenPdf::20                      0                       # What read queue length does an incoming req see
system.mem_ctrls.rdQLenPdf::21                      0                       # What read queue length does an incoming req see
system.mem_ctrls.rdQLenPdf::22                      0                       # What read queue length does an incoming req see
system.mem_ctrls.rdQLenPdf::23                      0                       # What read queue length does an incoming req see
system.mem_ctrls.rdQLenPdf::24                      0                       # What read queue length does an incoming req see
system.mem_ctrls.rdQLenPdf::25                      0                       # What read queue length does an incoming req see
system.mem_ctrls.rdQLenPdf::26                      0                       # What read queue length does an incoming req see
system.mem_ctrls.rdQLenPdf::27                      0                       # What read queue length does an incoming req see
system.mem_ctrls.rdQLenPdf::28                      0                       # What read queue length does an incoming req see
system.mem_ctrls.rdQLenPdf::29                      0                       # What read queue length does an incoming req see
system.mem_ctrls.rdQLenPdf::30                      0                       # What read queue length does an incoming req see
system.mem_ctrls.rdQLenPdf::31                      0                       # What read queue length does an incoming req see
system.mem_ctrls.rdQLenPdf::32                      0                       # What read queue length does an incoming req see
system.mem_ctrls.rdQLenPdf::33                      0                       # What read queue length does an incoming req see
system.mem_ctrls.rdQLenPdf::34                      0                       # What read queue length does an incoming req see
system.mem_ctrls.rdQLenPdf::35                      0                       # What read queue length does an incoming req see
system.mem_ctrls.rdQLenPdf::36                      0                       # What read queue length does an incoming req see
system.mem_ctrls.rdQLenPdf::37                      0                       # What read queue length does an incoming req see
system.mem_ctrls.rdQLenPdf::38                      0                       # What read queue length does an incoming req see
system.mem_ctrls.rdQLenPdf::39                      0                       # What read queue length does an incoming req see
system.mem_ctrls.rdQLenPdf::40                      0                       # What read queue length does an incoming req see
system.mem_ctrls.rdQLenPdf::41                      0                       # What read queue length does an incoming req see
system.mem_ctrls.rdQLenPdf::42                      0                       # What read queue length does an incoming req see
system.mem_ctrls.rdQLenPdf::43                      0                       # What read queue length does an incoming req see
system.mem_ctrls.rdQLenPdf::44                      0                       # What read queue length does an incoming req see
system.mem_ctrls.rdQLenPdf::45                      0                       # What read queue length does an incoming req see
system.mem_ctrls.rdQLenPdf::46                      0                       # What read queue length does an incoming req see
system.mem_ctrls.rdQLenPdf::47                      0                       # What read queue length does an incoming req see
system.mem_ctrls.rdQLenPdf::48                      0                       # What read queue length does an incoming req see
system.mem_ctrls.rdQLenPdf::49                      0                       # What read queue length does an incoming req see
system.mem_ctrls.rdQLenPdf::50                      0                       # What read queue length does an incoming req see
system.mem_ctrls.rdQLenPdf::51                      0                       # What read queue length does an incoming req see
system.mem_ctrls.rdQLenPdf::52                      0                       # What read queue length does an incoming req see
system.mem_ctrls.rdQLenPdf::53                      0                       # What read queue length does an incoming req see
system.mem_ctrls.rdQLenPdf::54                      0                       # What read queue length does an incoming req see
system.mem_ctrls.rdQLenPdf::55                      0                       # What read queue length does an incoming req see
system.mem_ctrls.rdQLenPdf::56                      0                       # What read queue length does an incoming req see
system.mem_ctrls.rdQLenPdf::57                      0                       # What read queue length does an incoming req see
system.mem_ctrls.rdQLenPdf::58                      0                       # What read queue length does an incoming req see
system.mem_ctrls.rdQLenPdf::59                      0                       # What read queue length does an incoming req see
system.mem_ctrls.rdQLenPdf::60                      0                       # What read queue length does an incoming req see
system.mem_ctrls.rdQLenPdf::61                      0                       # What read queue length does an incoming req see
system.mem_ctrls.rdQLenPdf::62                      0                       # What read queue length does an incoming req see
system.mem_ctrls.rdQLenPdf::63                      0                       # What read queue length does an incoming req see
system.mem_ctrls.wrQLenPdf::0                       1                       # What write queue length does an incoming req see
system.mem_ctrls.wrQLenPdf::1                       1                       # What write queue length does an incoming req see
system.mem_ctrls.wrQLenPdf::2                       1                       # What write queue length does an incoming req see
system.mem_ctrls.wrQLenPdf::3                       1                       # What write queue length does an incoming req see
system.mem_ctrls.wrQLenPdf::4                       1                       # What write queue length does an incoming req see
system.mem_ctrls.wrQLenPdf::5                       1                       # What write queue length does an incoming req see
system.mem_ctrls.wrQLenPdf::6                       1                       # What write queue length does an incoming req see
system.mem_ctrls.wrQLenPdf::7                       1                       # What write queue length does an incoming req see
system.mem_ctrls.wrQLenPdf::8                       1                       # What write queue length does an incoming req see
system.mem_ctrls.wrQLenPdf::9                       1                       # What write queue length does an incoming req see
system.mem_ctrls.wrQLenPdf::10                      1                       # What write queue length does an incoming req see
system.mem_ctrls.wrQLenPdf::11                      1                       # What write queue length does an incoming req see
system.mem_ctrls.wrQLenPdf::12                      1                       # What write queue length does an incoming req see
system.mem_ctrls.wrQLenPdf::13                      1                       # What write queue length does an incoming req see
system.mem_ctrls.wrQLenPdf::14                      1                       # What write queue length does an incoming req see
system.mem_ctrls.wrQLenPdf::15                      1                       # What write queue length does an incoming req see
system.mem_ctrls.wrQLenPdf::16                      1                       # What write queue length does an incoming req see
system.mem_ctrls.wrQLenPdf::17                      1                       # What write queue length does an incoming req see
system.mem_ctrls.wrQLenPdf::18                      1                       # What write queue length does an incoming req see
system.mem_ctrls.wrQLenPdf::19                      1                       # What write queue length does an incoming req see
system.mem_ctrls.wrQLenPdf::20                      1                       # What write queue length does an incoming req see
system.mem_ctrls.wrQLenPdf::21                      1                       # What write queue length does an incoming req see
system.mem_ctrls.wrQLenPdf::22                      1                       # What write queue length does an incoming req see
system.mem_ctrls.wrQLenPdf::23                      1                       # What write queue length does an incoming req see
system.mem_ctrls.wrQLenPdf::24                      1                       # What write queue length does an incoming req see
system.mem_ctrls.wrQLenPdf::25                      1                       # What write queue length does an incoming req see
system.mem_ctrls.wrQLenPdf::26                      1                       # What write queue length does an incoming req see
system.mem_ctrls.wrQLenPdf::27                      1                       # What write queue length does an incoming req see
system.mem_ctrls.wrQLenPdf::28                      1                       # What write queue length does an incoming req see
system.mem_ctrls.wrQLenPdf::29                      1                       # What write queue length does an incoming req see
system.mem_ctrls.wrQLenPdf::30                      1                       # What write queue length does an incoming req see
system.mem_ctrls.wrQLenPdf::31                      1                       # What write queue length does an incoming req see
system.mem_ctrls.wrQLenPdf::32                      1                       # What write queue length does an incoming req see
system.mem_ctrls.wrQLenPdf::33                      1                       # What write queue length does an incoming req see
system.mem_ctrls.wrQLenPdf::34                      1                       # What write queue length does an incoming req see
system.mem_ctrls.wrQLenPdf::35                      1                       # What write queue length does an incoming req see
system.mem_ctrls.wrQLenPdf::36                      1                       # What write queue length does an incoming req see
system.mem_ctrls.wrQLenPdf::37                      1                       # What write queue length does an incoming req see
system.mem_ctrls.wrQLenPdf::38                      1                       # What write queue length does an incoming req see
system.mem_ctrls.wrQLenPdf::39                      1                       # What write queue length does an incoming req see
system.mem_ctrls.wrQLenPdf::40                      1                       # What write queue length does an incoming req see
system.mem_ctrls.wrQLenPdf::41                      1                       # What write queue length does an incoming req see
system.mem_ctrls.wrQLenPdf::42                      1                       # What write queue length does an incoming req see
system.mem_ctrls.wrQLenPdf::43                      1                       # What write queue length does an incoming req see
system.mem_ctrls.wrQLenPdf::44                      1                       # What write queue length does an incoming req see
system.mem_ctrls.wrQLenPdf::45                      1                       # What write queue length does an incoming req see
system.mem_ctrls.wrQLenPdf::46                      1                       # What write queue length does an incoming req see
system.mem_ctrls.wrQLenPdf::47                      4                       # What write queue length does an incoming req see
system.mem_ctrls.wrQLenPdf::48                      4                       # What write queue length does an incoming req see
system.mem_ctrls.wrQLenPdf::49                      7                       # What write queue length does an incoming req see
system.mem_ctrls.wrQLenPdf::50                      8                       # What write queue length does an incoming req see
system.mem_ctrls.wrQLenPdf::51                      6                       # What write queue length does an incoming req see
system.mem_ctrls.wrQLenPdf::52                      6                       # What write queue length does an incoming req see
system.mem_ctrls.wrQLenPdf::53                      6                       # What write queue length does an incoming req see
system.mem_ctrls.wrQLenPdf::54                      6                       # What write queue length does an incoming req see
system.mem_ctrls.wrQLenPdf::55                      6                       # What write queue length does an incoming req see
system.mem_ctrls.wrQLenPdf::56                      6                       # What write queue length does an incoming req see
system.mem_ctrls.wrQLenPdf::57                      6                       # What write queue length does an incoming req see
system.mem_ctrls.wrQLenPdf::58                      6                       # What write queue length does an incoming req see
system.mem_ctrls.wrQLenPdf::59                      6                       # What write queue length does an incoming req see
system.mem_ctrls.wrQLenPdf::60                      6                       # What write queue length does an incoming req see
system.mem_ctrls.wrQLenPdf::61                      6                       # What write queue length does an incoming req see
system.mem_ctrls.wrQLenPdf::62                      6                       # What write queue length does an incoming req see
system.mem_ctrls.wrQLenPdf::63                      6                       # What write queue length does an incoming req see
system.mem_ctrls.wrQLenPdf::64                      6                       # What write queue length does an incoming req see
system.mem_ctrls.wrQLenPdf::65                      0                       # What write queue length does an incoming req see
system.mem_ctrls.wrQLenPdf::66                      0                       # What write queue length does an incoming req see
system.mem_ctrls.wrQLenPdf::67                      0                       # What write queue length does an incoming req see
system.mem_ctrls.wrQLenPdf::68                      0                       # What write queue length does an incoming req see
system.mem_ctrls.wrQLenPdf::69                      0                       # What write queue length does an incoming req see
system.mem_ctrls.wrQLenPdf::70                      0                       # What write queue length does an incoming req see
system.mem_ctrls.wrQLenPdf::71                      0                       # What write queue length does an incoming req see
system.mem_ctrls.wrQLenPdf::72                      0                       # What write queue length does an incoming req see
system.mem_ctrls.wrQLenPdf::73                      0                       # What write queue length does an incoming req see
system.mem_ctrls.wrQLenPdf::74                      0                       # What write queue length does an incoming req see
system.mem_ctrls.wrQLenPdf::75                      0                       # What write queue length does an incoming req see
system.mem_ctrls.wrQLenPdf::76                      0                       # What write queue length does an incoming req see
system.mem_ctrls.wrQLenPdf::77                      0                       # What write queue length does an incoming req see
system.mem_ctrls.wrQLenPdf::78                      0                       # What write queue length does an incoming req see
system.mem_ctrls.wrQLenPdf::79                      0                       # What write queue length does an incoming req see
system.mem_ctrls.wrQLenPdf::80                      0                       # What write queue length does an incoming req see
system.mem_ctrls.wrQLenPdf::81                      0                       # What write queue length does an incoming req see
system.mem_ctrls.wrQLenPdf::82                      0                       # What write queue length does an incoming req see
system.mem_ctrls.wrQLenPdf::83                      0                       # What write queue length does an incoming req see
system.mem_ctrls.wrQLenPdf::84                      0                       # What write queue length does an incoming req see
system.mem_ctrls.wrQLenPdf::85                      0                       # What write queue length does an incoming req see
system.mem_ctrls.wrQLenPdf::86                      0                       # What write queue length does an incoming req see
system.mem_ctrls.wrQLenPdf::87                      0                       # What write queue length does an incoming req see
system.mem_ctrls.wrQLenPdf::88                      0                       # What write queue length does an incoming req see
system.mem_ctrls.wrQLenPdf::89                      0                       # What write queue length does an incoming req see
system.mem_ctrls.wrQLenPdf::90                      0                       # What write queue length does an incoming req see
system.mem_ctrls.wrQLenPdf::91                      0                       # What write queue length does an incoming req see
[...]
system.mem_ctrls.dram.bw_total::.writebacks       849110                       # Total bandwidth to/from this memory (bytes/s)
system.mem_ctrls.dram.bw_total::.cpu.inst    478049169                       # Total bandwidth to/from this memory (bytes/s)
system.mem_ctrls.dram.bw_total::.cpu.data    163029201                       # Total bandwidth to/from this memory (bytes/s)
system.mem_ctrls.dram.bw_total::total       641927481                       # Total bandwidth to/from this memory (bytes/s)
system.mem_ctrls.dram.readBursts                  658                       # Number of DRAM read bursts
system.mem_ctrls.dram.writeBursts                 103                       # Number of DRAM write bursts
system.mem_ctrls.dram.perBankRdBursts::0           59                       # Per bank write bursts
system.mem_ctrls.dram.perBankRdBursts::1            2                       # Per bank write bursts
system.mem_ctrls.dram.perBankRdBursts::2           44                       # Per bank write bursts
system.mem_ctrls.dram.perBankRdBursts::3           44                       # Per bank write bursts
system.mem_ctrls.dram.perBankRdBursts::4           27                       # Per bank write bursts
system.mem_ctrls.dram.perBankRdBursts::5           14                       # Per bank write bursts
system.mem_ctrls.dram.perBankRdBursts::6           57                       # Per bank write bursts
system.mem_ctrls.dram.perBankRdBursts::7           16                       # Per bank write bursts
system.mem_ctrls.dram.perBankRdBursts::8           78                       # Per bank write bursts
system.mem_ctrls.dram.perBankRdBursts::9           73                       # Per bank write bursts
system.mem_ctrls.dram.perBankRdBursts::10           48                       # Per bank write bursts
system.mem_ctrls.dram.perBankRdBursts::11           58                       # Per bank write bursts
system.mem_ctrls.dram.perBankRdBursts::12           31                       # Per bank write bursts
system.mem_ctrls.dram.perBankRdBursts::13            0                       # Per bank write bursts
system.mem_ctrls.dram.perBankRdBursts::14            0                       # Per bank write bursts
system.mem_ctrls.dram.perBankRdBursts::15            0                       # Per bank write bursts
system.mem_ctrls.dram.perBankRdBursts::16            7                       # Per bank write bursts
system.mem_ctrls.dram.perBankRdBursts::17            5                       # Per bank write bursts
system.mem_ctrls.dram.perBankRdBursts::18            0                       # Per bank write bursts
system.mem_ctrls.dram.perBankRdBursts::19            0                       # Per bank write bursts
system.mem_ctrls.dram.perBankRdBursts::20            7                       # Per bank write bursts
system.mem_ctrls.dram.perBankRdBursts::21           13                       # Per bank write bursts
system.mem_ctrls.dram.perBankRdBursts::22            7                       # Per bank write bursts
system.mem_ctrls.dram.perBankRdBursts::23            0                       # Per bank write bursts
system.mem_ctrls.dram.perBankRdBursts::24           22                       # Per bank write bursts
system.mem_ctrls.dram.perBankRdBursts::25           10                       # Per bank write bursts
system.mem_ctrls.dram.perBankRdBursts::26            2                       # Per bank write bursts
system.mem_ctrls.dram.perBankRdBursts::27            0                       # Per bank write bursts
system.mem_ctrls.dram.perBankRdBursts::28            9                       # Per bank write bursts
system.mem_ctrls.dram.perBankRdBursts::29           14                       # Per bank write bursts
system.mem_ctrls.dram.perBankRdBursts::30           10                       # Per bank write bursts
system.mem_ctrls.dram.perBankRdBursts::31            1                       # Per bank write bursts
system.mem_ctrls.dram.perBankWrBursts::0           26                       # Per bank write bursts
system.mem_ctrls.dram.perBankWrBursts::1            0                       # Per bank write bursts
system.mem_ctrls.dram.perBankWrBursts::2           14                       # Per bank write bursts
system.mem_ctrls.dram.perBankWrBursts::3            0                       # Per bank write bursts
system.mem_ctrls.dram.perBankWrBursts::4            0                       # Per bank write bursts
system.mem_ctrls.dram.perBankWrBursts::5            0                       # Per bank write bursts
system.mem_ctrls.dram.perBankWrBursts::6            2                       # Per bank write bursts
system.mem_ctrls.dram.perBankWrBursts::7            2                       # Per bank write bursts
system.mem_ctrls.dram.perBankWrBursts::8           12                       # Per bank write bursts
system.mem_ctrls.dram.perBankWrBursts::9            2                       # Per bank write bursts
system.mem_ctrls.dram.perBankWrBursts::10           11                       # Per bank write bursts
system.mem_ctrls.dram.perBankWrBursts::11           11                       # Per bank write bursts
system.mem_ctrls.dram.perBankWrBursts::12            7                       # Per bank write bursts
system.mem_ctrls.dram.perBankWrBursts::13            0                       # Per bank write bursts
system.mem_ctrls.dram.perBankWrBursts::14            0                       # Per bank write bursts
system.mem_ctrls.dram.perBankWrBursts::15            0                       # Per bank write bursts
system.mem_ctrls.dram.perBankWrBursts::16            0                       # Per bank write bursts
system.mem_ctrls.dram.perBankWrBursts::17            0                       # Per bank write bursts
system.mem_ctrls.dram.perBankWrBursts::18            0                       # Per bank write bursts
system.mem_ctrls.dram.perBankWrBursts::19            0                       # Per bank write bursts
system.mem_ctrls.dram.perBankWrBursts::20            0                       # Per bank write bursts
system.mem_ctrls.dram.perBankWrBursts::21            4                       # Per bank write bursts
system.mem_ctrls.dram.perBankWrBursts::22            0                       # Per bank write bursts
system.mem_ctrls.dram.perBankWrBursts::23            0                       # Per bank write bursts
system.mem_ctrls.dram.perBankWrBursts::24            8                       # Per bank write bursts
system.mem_ctrls.dram.perBankWrBursts::25            2                       # Per bank write bursts
system.mem_ctrls.dram.perBankWrBursts::26            0                       # Per bank write bursts
system.mem_ctrls.dram.perBankWrBursts::27            0                       # Per bank write bursts
system.mem_ctrls.dram.perBankWrBursts::28            2                       # Per bank write bursts
system.mem_ctrls.dram.perBankWrBursts::29            0                       # Per bank write bursts
system.mem_ctrls.dram.perBankWrBursts::30            0                       # Per bank write bursts
system.mem_ctrls.dram.perBankWrBursts::31            0                       # Per bank write bursts
system.mem_ctrls.dram.totQLat                 4651882                       # Total ticks spent queuing
system.mem_ctrls.dram.totBusLat               2192456                       # Total ticks spent in databus transfers
system.mem_ctrls.dram.totMemAccLat           16161618                       # Total ticks spent from burst creation until serviced by the DRAM
system.mem_ctrls.dram.avgQLat                 7069.73                       # Average queueing delay per DRAM burst
system.mem_ctrls.dram.avgBusLat               3332.00                       # Average bus latency per DRAM burst
system.mem_ctrls.dram.avgMemAccLat           24561.73                       # Average memory access latency per DRAM burst
system.mem_ctrls.dram.readRowHits                 532                       # Number of row buffer hits during reads
system.mem_ctrls.dram.writeRowHits                 85                       # Number of row buffer hits during writes
system.mem_ctrls.dram.readRowHitRate            80.85                       # Row buffer hit rate for reads
system.mem_ctrls.dram.writeRowHitRate           82.52                       # Row buffer hit rate for writes
system.mem_ctrls.dram.bytesPerActivate::samples          132                       # Bytes accessed per row activation
system.mem_ctrls.dram.bytesPerActivate::mean   334.545455                       # Bytes accessed per row activation
system.mem_ctrls.dram.bytesPerActivate::gmean   225.183995                       # Bytes accessed per row activation
system.mem_ctrls.dram.bytesPerActivate::stdev   299.413890                       # Bytes accessed per row activation
system.mem_ctrls.dram.bytesPerActivate::0-127           29     21.97%     21.97% # Bytes accessed per row activation
system.mem_ctrls.dram.bytesPerActivate::128-255           33     25.00%     46.97% # Bytes accessed per row activation
system.mem_ctrls.dram.bytesPerActivate::256-383           30     22.73%     69.70% # Bytes accessed per row activation
system.mem_ctrls.dram.bytesPerActivate::384-511            8      6.06%     75.76% # Bytes accessed per row activation
system.mem_ctrls.dram.bytesPerActivate::512-639           10      7.58%     83.33% # Bytes accessed per row activation
system.mem_ctrls.dram.bytesPerActivate::640-767            2      1.52%     84.85% # Bytes accessed per row activation
system.mem_ctrls.dram.bytesPerActivate::768-895            6      4.55%     89.39% # Bytes accessed per row activation
system.mem_ctrls.dram.bytesPerActivate::896-1023            3      2.27%     91.67% # Bytes accessed per row activation
system.mem_ctrls.dram.bytesPerActivate::1024-1151           11      8.33%    100.00% # Bytes accessed per row activation
system.mem_ctrls.dram.bytesPerActivate::total          132                       # Bytes accessed per row activation
system.mem_ctrls.dram.bytesRead                 42112                       # Total number of bytes read from DRAM
system.mem_ctrls.dram.bytesWritten               6592                       # Total number of bytes written to DRAM
system.mem_ctrls.dram.avgRdBW              558.714659                       # Average DRAM read bandwidth in MiBytes/s
system.mem_ctrls.dram.avgWrBW               87.458374                       # Average DRAM write bandwidth in MiBytes/s
system.mem_ctrls.dram.peakBW                 19207.00                       # Theoretical peak bandwidth in MiByte/s
system.mem_ctrls.dram.busUtil                    3.36                       # Data bus utilization in percentage
system.mem_ctrls.dram.busUtilRead                2.91                       # Data bus utilization in percentage for reads
system.mem_ctrls.dram.busUtilWrite               0.46                       # Data bus utilization in percentage for writes
system.mem_ctrls.dram.pageHitRate               81.08                       # Row buffer hit rate, read and write combined
system.mem_ctrls.dram.power_state.pwrStateResidencyTicks::UNDEFINED     75373000                       # Cumulative time (in ticks) in various power states
system.mem_ctrls.dram.rank0.actEnergy    343062.720000                       # Energy for activate commands per rank (pJ)
system.mem_ctrls.dram.rank0.preEnergy    418780.420800                       # Energy for precharge commands per rank (pJ)
system.mem_ctrls.dram.rank0.readEnergy   2317680.556800                       # Energy for read commands per rank (pJ)
system.mem_ctrls.dram.rank0.writeEnergy  326989.152000                       # Energy for write commands per rank (pJ)
system.mem_ctrls.dram.rank0.refreshEnergy 12468398.644800                       # Energy for refresh commands per rank (pJ)
system.mem_ctrls.dram.rank0.actBackEnergy 57450326.673600                       # Energy for active background per rank (pJ)
system.mem_ctrls.dram.rank0.preBackEnergy 5060982.796800                       # Energy for precharge background per rank (pJ)
system.mem_ctrls.dram.rank0.actPowerDownEnergy            0                       # Energy for active power-down per rank (pJ)
system.mem_ctrls.dram.rank0.prePowerDownEnergy            0                       # Energy for precharge power-down per rank (pJ)
system.mem_ctrls.dram.rank0.selfRefreshEnergy            0                       # Energy for self refresh per rank (pJ)
system.mem_ctrls.dram.rank0.totalEnergy  78386220.964800                       # Total energy per rank (pJ)
system.mem_ctrls.dram.rank0.averagePower  1039.977458                       # Core power per rank (mW)
system.mem_ctrls.dram.rank0.totalIdleTime            0                       # Total Idle time Per DRAM Rank
system.mem_ctrls.dram.rank0.pwrStateTime::IDLE      7502760                       # Time in different power states
system.mem_ctrls.dram.rank0.pwrStateTime::REF      3150000                       # Time in different power states
system.mem_ctrls.dram.rank0.pwrStateTime::SREF            0                       # Time in different power states
system.mem_ctrls.dram.rank0.pwrStateTime::PRE_PDN            0                       # Time in different power states
system.mem_ctrls.dram.rank0.pwrStateTime::ACT     64720240                       # Time in different power states
system.mem_ctrls.dram.rank0.pwrStateTime::ACT_PDN            0                       # Time in different power states
system.mem_ctrls.dram.rank1.actEnergy    106037.568000                       # Energy for activate commands per rank (pJ)
system.mem_ctrls.dram.rank1.preEnergy    128536.564800                       # Energy for precharge commands per rank (pJ)
system.mem_ctrls.dram.rank1.readEnergy   450075.897600                       # Energy for read commands per rank (pJ)
system.mem_ctrls.dram.rank1.writeEnergy  60135.936000                       # Energy for write commands per rank (pJ)
system.mem_ctrls.dram.rank1.refreshEnergy 12468398.644800                       # Energy for refresh commands per rank (pJ)
system.mem_ctrls.dram.rank1.actBackEnergy 42615874.828800                       # Energy for active background per rank (pJ)
system.mem_ctrls.dram.rank1.preBackEnergy 16459205.683200                       # Energy for precharge background per rank (pJ)
system.mem_ctrls.dram.rank1.actPowerDownEnergy            0                       # Energy for active power-down per rank (pJ)
system.mem_ctrls.dram.rank1.prePowerDownEnergy            0                       # Energy for precharge power-down per rank (pJ)
system.mem_ctrls.dram.rank1.selfRefreshEnergy            0                       # Energy for self refresh per rank (pJ)
system.mem_ctrls.dram.rank1.totalEnergy  72288265.123200                       # Total energy per rank (pJ)
system.mem_ctrls.dram.rank1.averagePower   959.073742                       # Core power per rank (mW)
system.mem_ctrls.dram.rank1.totalIdleTime            0                       # Total Idle time Per DRAM Rank
system.mem_ctrls.dram.rank1.pwrStateTime::IDLE     24964092                       # Time in different power states
system.mem_ctrls.dram.rank1.pwrStateTime::REF      3150000                       # Time in different power states
system.mem_ctrls.dram.rank1.pwrStateTime::SREF            0                       # Time in different power states
system.mem_ctrls.dram.rank1.pwrStateTime::PRE_PDN            0                       # Time in different power states
system.mem_ctrls.dram.rank1.pwrStateTime::ACT     47258908                       # Time in different power states
system.mem_ctrls.dram.rank1.pwrStateTime::ACT_PDN            0                       # Time in different power states
system.mem_ctrls.power_state.pwrStateResidencyTicks::UNDEFINED     75373000                       # Cumulative time (in ticks) in various power states
system.membus.trans_dist::ReadResp                679                       # Transaction distribution
system.membus.trans_dist::WritebackDirty            1                       # Transaction distribution
system.membus.trans_dist::WritebackClean          238                       # Transaction distribution
system.membus.trans_dist::CleanEvict                3                       # Transaction distribution
system.membus.trans_dist::ReadExReq                76                       # Transaction distribution
system.membus.trans_dist::ReadExResp               76                       # Transaction distribution
system.membus.trans_dist::ReadCleanReq            563                       # Transaction distribution
system.membus.trans_dist::ReadSharedReq           116                       # Transaction distribution
system.membus.pkt_count_system.cpu.icache.mem_side_port::system.mem_ctrls.port         1364                       # Packet count per connected requestor and responder (bytes)
system.membus.pkt_count_system.cpu.dcache.mem_side_port::system.mem_ctrls.port          388                       # Packet count per connected requestor and responder (bytes)
system.membus.pkt_count::total                   1752                       # Packet count per connected requestor and responder (bytes)
system.membus.pkt_size_system.cpu.icache.mem_side_port::system.mem_ctrls.port        51264                       # Cumulative packet size per connected requestor and responder (bytes)
system.membus.pkt_size_system.cpu.dcache.mem_side_port::system.mem_ctrls.port        12352                       # Cumulative packet size per connected requestor and responder (bytes)
system.membus.pkt_size::total                   63616                       # Cumulative packet size per connected requestor and responder (bytes)
system.membus.snoops                                0                       # Total snoops (count)
system.membus.snoopTraffic                          0                       # Total snoop traffic (bytes)
system.membus.snoop_fanout::samples               755                       # Request fanout histogram
system.membus.snoop_fanout::mean             0.050331                       # Request fanout histogram
system.membus.snoop_fanout::stdev            0.218772                       # Request fanout histogram
system.membus.snoop_fanout::underflows              0      0.00%      0.00% # Request fanout histogram
system.membus.snoop_fanout::0                     717     94.97%     94.97% # Request fanout histogram
system.membus.snoop_fanout::1                      38      5.03%    100.00% # Request fanout histogram
system.membus.snoop_fanout::2                       0      0.00%    100.00% # Request fanout histogram
system.membus.snoop_fanout::overflows               0      0.00%    100.00% # Request fanout histogram
system.membus.snoop_fanout::min_value               0                       # Request fanout histogram
system.membus.snoop_fanout::max_value               1                       # Request fanout histogram
system.membus.snoop_fanout::total                 755                       # Request fanout histogram
system.membus.power_state.pwrStateResidencyTicks::UNDEFINED     75373000                       # Cumulative time (in ticks) in various power states
system.membus.reqLayer0.occupancy              976500                       # Layer occupancy (ticks)
system.membus.reqLayer0.utilization               1.3                       # Layer utilization (%)
system.membus.respLayer1.occupancy            1437170                       # Layer occupancy (ticks)
system.membus.respLayer1.utilization              1.9                       # Layer utilization (%)
system.membus.respLayer2.occupancy             497212                       # Layer occupancy (ticks)
system.membus.respLayer2.utilization              0.7                       # Layer utilization (%)
system.voltage_domain.voltage                       1                       # Voltage in Volts

---------- End Simulation Statistics   ----------
