
---------- Begin Simulation Statistics ----------
final_tick                               107192581000                       # Number of ticks from beginning of simulation (restored from checkpoints and never reset)
host_inst_rate                                 295496                       # Simulator instruction rate (inst/s)
host_mem_usage                                 709060                       # Number of bytes of host memory used
host_op_rate                                   322502                       # Simulator op (including micro ops) rate (op/s)
host_seconds                                   338.41                       # Real time elapsed on the host
host_tick_rate                              316749382                       # Simulator tick rate (ticks/s)
sim_freq                                 1000000000000                       # Frequency of simulated ticks
sim_insts                                   100000001                       # Number of instructions simulated
sim_ops                                     109139393                       # Number of ops (including micro ops) simulated
sim_seconds                                  0.107193                       # Number of seconds simulated
sim_ticks                                107192581000                       # Number of ticks simulated
system.cpu.committedInsts                   100000001                       # Number of instructions committed
system.cpu.committedOps                     109139393                       # Number of ops (including micro ops) committed
system.cpu.cpi                               1.071926                       # CPI: cycles per instruction
system.cpu.discardedOps                        429810                       # Number of ops (including micro ops) which were discarded before commit
system.cpu.idleCycles                         1927618                       # Total number of cycles that the object has spent stopped
system.cpu.ipc                               0.932900                       # IPC: instructions per cycle
system.cpu.numCycles                        107192581                       # number of cpu cycles simulated
system.cpu.numFetchSuspends                         0                       # Number of times Execute suspended instruction fetching
system.cpu.numWorkItemsCompleted                    0                       # number of work items this cpu completed
system.cpu.numWorkItemsStarted                      0                       # number of work items this cpu started
system.cpu.op_class_0::No_OpClass                   0      0.00%      0.00% # Class of committed instruction
system.cpu.op_class_0::IntAlu                72222733     66.17%     66.17% # Class of committed instruction
system.cpu.op_class_0::IntMult                 547028      0.50%     66.68% # Class of committed instruction
system.cpu.op_class_0::IntDiv                       0      0.00%     66.68% # Class of committed instruction
system.cpu.op_class_0::FloatAdd                     0      0.00%     66.68% # Class of committed instruction
system.cpu.op_class_0::FloatCmp                     0      0.00%     66.68% # Class of committed instruction
system.cpu.op_class_0::FloatCvt                     0      0.00%     66.68% # Class of committed instruction
system.cpu.op_class_0::FloatMult                    0      0.00%     66.68% # Class of committed instruction
system.cpu.op_class_0::FloatMultAcc                 0      0.00%     66.68% # Class of committed instruction
system.cpu.op_class_0::FloatDiv                     0      0.00%     66.68% # Class of committed instruction
system.cpu.op_class_0::FloatMisc                    0      0.00%     66.68% # Class of committed instruction
system.cpu.op_class_0::FloatSqrt                    0      0.00%     66.68% # Class of committed instruction
system.cpu.op_class_0::SimdAdd                 231656      0.21%     66.89% # Class of committed instruction
system.cpu.op_class_0::SimdAddAcc                   0      0.00%     66.89% # Class of committed instruction
system.cpu.op_class_0::SimdAlu                 148482      0.14%     67.02% # Class of committed instruction
system.cpu.op_class_0::SimdCmp                 115828      0.11%     67.13% # Class of committed instruction
system.cpu.op_class_0::SimdCvt                      0      0.00%     67.13% # Class of committed instruction
system.cpu.op_class_0::SimdMisc                 42808      0.04%     67.17% # Class of committed instruction
system.cpu.op_class_0::SimdMult                     0      0.00%     67.17% # Class of committed instruction
system.cpu.op_class_0::SimdMultAcc                  0      0.00%     67.17% # Class of committed instruction
system.cpu.op_class_0::SimdShift                    0      0.00%     67.17% # Class of committed instruction
system.cpu.op_class_0::SimdShiftAcc                 0      0.00%     67.17% # Class of committed instruction
system.cpu.op_class_0::SimdDiv                      0      0.00%     67.17% # Class of committed instruction
system.cpu.op_class_0::SimdSqrt                     0      0.00%     67.17% # Class of committed instruction
system.cpu.op_class_0::SimdFloatAdd                 0      0.00%     67.17% # Class of committed instruction
system.cpu.op_class_0::SimdFloatAlu                 0      0.00%     67.17% # Class of committed instruction
system.cpu.op_class_0::SimdFloatCmp                 0      0.00%     67.17% # Class of committed instruction
system.cpu.op_class_0::SimdFloatCvt                 0      0.00%     67.17% # Class of committed instruction
system.cpu.op_class_0::SimdFloatDiv                 0      0.00%     67.17% # Class of committed instruction
system.cpu.op_class_0::SimdFloatMisc           159857      0.15%     67.32% # Class of committed instruction
system.cpu.op_class_0::SimdFloatMult                0      0.00%     67.32% # Class of committed instruction
system.cpu.op_class_0::SimdFloatMultAcc             0      0.00%     67.32% # Class of committed instruction
system.cpu.op_class_0::SimdFloatSqrt                0      0.00%     67.32% # Class of committed instruction
system.cpu.op_class_0::SimdReduceAdd                0      0.00%     67.32% # Class of committed instruction
system.cpu.op_class_0::SimdReduceAlu                0      0.00%     67.32% # Class of committed instruction
system.cpu.op_class_0::SimdReduceCmp                0      0.00%     67.32% # Class of committed instruction
system.cpu.op_class_0::SimdFloatReduceAdd            0      0.00%     67.32% # Class of committed instruction
system.cpu.op_class_0::SimdFloatReduceCmp            0      0.00%     67.32% # Class of committed instruction
system.cpu.op_class_0::SimdAes                      0      0.00%     67.32% # Class of committed instruction
system.cpu.op_class_0::SimdAesMix                   0      0.00%     67.32% # Class of committed instruction
system.cpu.op_class_0::SimdSha1Hash                 0      0.00%     67.32% # Class of committed instruction
system.cpu.op_class_0::SimdSha1Hash2                0      0.00%     67.32% # Class of committed instruction
system.cpu.op_class_0::SimdSha256Hash               0      0.00%     67.32% # Class of committed instruction
system.cpu.op_class_0::SimdSha256Hash2              0      0.00%     67.32% # Class of committed instruction
system.cpu.op_class_0::SimdShaSigma2                0      0.00%     67.32% # Class of committed instruction
system.cpu.op_class_0::SimdShaSigma3                0      0.00%     67.32% # Class of committed instruction
system.cpu.op_class_0::SimdPredAlu                  0      0.00%     67.32% # Class of committed instruction
system.cpu.op_class_0::MemRead               20932683     19.18%     86.50% # Class of committed instruction
system.cpu.op_class_0::MemWrite              14738318     13.50%    100.00% # Class of committed instruction
system.cpu.op_class_0::FloatMemRead                 0      0.00%    100.00% # Class of committed instruction
system.cpu.op_class_0::FloatMemWrite                0      0.00%    100.00% # Class of committed instruction
system.cpu.op_class_0::IprAccess                    0      0.00%    100.00% # Class of committed instruction
system.cpu.op_class_0::InstPrefetch                 0      0.00%    100.00% # Class of committed instruction
system.cpu.op_class_0::total                109139393                       # Class of committed instruction
system.cpu.tickCycles                       105264963                       # Number of cycles that the object actually ticked
system.cpu.workload.numSyscalls                    85                       # Number of system calls
system.membus.snoop_filter.hit_multi_requests            0                       # Number of requests hitting in the snoop filter with multiple (>1) holders of the requested data.
system.membus.snoop_filter.hit_multi_snoops            0                       # Number of snoops hitting in the snoop filter with multiple (>1) holders of the requested data.
system.membus.snoop_filter.hit_single_requests        12746                       # Number of requests hitting in the snoop filter with a single holder of the requested data.
system.membus.snoop_filter.hit_single_snoops            0                       # Number of snoops hitting in the snoop filter with a single holder of the requested data.
system.membus.snoop_filter.tot_requests         27804                       # Total number of requests made to the snoop filter.
system.membus.snoop_filter.tot_snoops               0                       # Total number of snoops made to the snoop filter.
system.tol2bus.snoop_filter.hit_multi_requests           22                       # Number of requests hitting in the snoop filter with multiple (>1) holders of the requested data.
system.tol2bus.snoop_filter.hit_multi_snoops            5                       # Number of snoops hitting in the snoop filter with multiple (>1) holders of the requested data.
system.tol2bus.snoop_filter.hit_single_requests        19242                       # Number of requests hitting in the snoop filter with a single holder of the requested data.
system.tol2bus.snoop_filter.hit_single_snoops          387                       # Number of snoops hitting in the snoop filter with a single holder of the requested data.
system.tol2bus.snoop_filter.tot_requests        39218                       # Total number of requests made to the snoop filter.
system.tol2bus.snoop_filter.tot_snoops            392                       # Total number of snoops made to the snoop filter.
system.clk_domain.clock                          1000                       # Clock period in ticks
system.cpu.branchPred.lookups                19700412                       # Number of BP lookups
system.cpu.branchPred.condPredicted          15859829                       # Number of conditional branches predicted
system.cpu.branchPred.condIncorrect             88974                       # Number of conditional branches incorrect
system.cpu.branchPred.BTBLookups              8076248                       # Number of BTB lookups
system.cpu.branchPred.BTBHits                 8062900                       # Number of BTB hits
system.cpu.branchPred.BTBHitPct             99.834725                       # BTB Hit Percentage
system.cpu.branchPred.RASUsed                 1050690                       # Number of times the RAS was used to get a target.
system.cpu.branchPred.RASIncorrect                468                       # Number of incorrect RAS predictions.
system.cpu.branchPred.indirectLookups          422689                       # Number of indirect predictor lookups.
system.cpu.branchPred.indirectHits             287881                       # Number of indirect target hits.
system.cpu.branchPred.indirectMisses           134808                       # Number of indirect misses.
system.cpu.branchPred.indirectMispredicted         1103                       # Number of mispredicted indirect branches.
system.cpu.dcache.demand_hits::.cpu.data     34601629                       # number of demand (read+write) hits
system.cpu.dcache.demand_hits::total         34601629                       # number of demand (read+write) hits
system.cpu.dcache.overall_hits::.cpu.data     34604736                       # number of overall hits
system.cpu.dcache.overall_hits::total        34604736                       # number of overall hits
system.cpu.dcache.demand_misses::.cpu.data        24356                       # number of demand (read+write) misses
system.cpu.dcache.demand_misses::total          24356                       # number of demand (read+write) misses
system.cpu.dcache.overall_misses::.cpu.data        24378                       # number of overall misses
system.cpu.dcache.overall_misses::total         24378                       # number of overall misses
system.cpu.dcache.demand_miss_latency::.cpu.data   2471660000                       # number of demand (read+write) miss cycles
system.cpu.dcache.demand_miss_latency::total   2471660000                       # number of demand (read+write) miss cycles
system.cpu.dcache.overall_miss_latency::.cpu.data   2471660000                       # number of overall miss cycles
system.cpu.dcache.overall_miss_latency::total   2471660000                       # number of overall miss cycles
system.cpu.dcache.demand_accesses::.cpu.data     34625985                       # number of demand (read+write) accesses
system.cpu.dcache.demand_accesses::total     34625985                       # number of demand (read+write) accesses
system.cpu.dcache.overall_accesses::.cpu.data     34629114                       # number of overall (read+write) accesses
system.cpu.dcache.overall_accesses::total     34629114                       # number of overall (read+write) accesses
system.cpu.dcache.demand_miss_rate::.cpu.data     0.000703                       # miss rate for demand accesses
system.cpu.dcache.demand_miss_rate::total     0.000703                       # miss rate for demand accesses
system.cpu.dcache.overall_miss_rate::.cpu.data     0.000704                       # miss rate for overall accesses
system.cpu.dcache.overall_miss_rate::total     0.000704                       # miss rate for overall accesses
system.cpu.dcache.demand_avg_miss_latency::.cpu.data 101480.538676                       # average overall miss latency
system.cpu.dcache.demand_avg_miss_latency::total 101480.538676                       # average overall miss latency
system.cpu.dcache.overall_avg_miss_latency::.cpu.data 101388.957257                       # average overall miss latency
system.cpu.dcache.overall_avg_miss_latency::total 101388.957257                       # average overall miss latency
system.cpu.dcache.blocked_cycles::no_mshrs            0                       # number of cycles access was blocked
system.cpu.dcache.blocked_cycles::no_targets            0                       # number of cycles access was blocked
system.cpu.dcache.blocked::no_mshrs                 0                       # number of cycles access was blocked
system.cpu.dcache.blocked::no_targets               0                       # number of cycles access was blocked
system.cpu.dcache.avg_blocked_cycles::no_mshrs          nan                       # average number of cycles each access was blocked
system.cpu.dcache.avg_blocked_cycles::no_targets          nan                       # average number of cycles each access was blocked
system.cpu.dcache.writebacks::.writebacks        18668                       # number of writebacks
system.cpu.dcache.writebacks::total             18668                       # number of writebacks
system.cpu.dcache.demand_mshr_hits::.cpu.data         4618                       # number of demand (read+write) MSHR hits
system.cpu.dcache.demand_mshr_hits::total         4618                       # number of demand (read+write) MSHR hits
system.cpu.dcache.overall_mshr_hits::.cpu.data         4618                       # number of overall MSHR hits
system.cpu.dcache.overall_mshr_hits::total         4618                       # number of overall MSHR hits
system.cpu.dcache.demand_mshr_misses::.cpu.data        19738                       # number of demand (read+write) MSHR misses
system.cpu.dcache.demand_mshr_misses::total        19738                       # number of demand (read+write) MSHR misses
system.cpu.dcache.overall_mshr_misses::.cpu.data        19749                       # number of overall MSHR misses
system.cpu.dcache.overall_mshr_misses::total        19749                       # number of overall MSHR misses
system.cpu.dcache.demand_mshr_miss_latency::.cpu.data   1992034000                       # number of demand (read+write) MSHR miss cycles
system.cpu.dcache.demand_mshr_miss_latency::total   1992034000                       # number of demand (read+write) MSHR miss cycles
system.cpu.dcache.overall_mshr_miss_latency::.cpu.data   1993173000                       # number of overall MSHR miss cycles
system.cpu.dcache.overall_mshr_miss_latency::total   1993173000                       # number of overall MSHR miss cycles
system.cpu.dcache.demand_mshr_miss_rate::.cpu.data     0.000570                       # mshr miss rate for demand accesses
system.cpu.dcache.demand_mshr_miss_rate::total     0.000570                       # mshr miss rate for demand accesses
system.cpu.dcache.overall_mshr_miss_rate::.cpu.data     0.000570                       # mshr miss rate for overall accesses
system.cpu.dcache.overall_mshr_miss_rate::total     0.000570                       # mshr miss rate for overall accesses
system.cpu.dcache.demand_avg_mshr_miss_latency::.cpu.data 100923.801804                       # average overall mshr miss latency
system.cpu.dcache.demand_avg_mshr_miss_latency::total 100923.801804                       # average overall mshr miss latency
system.cpu.dcache.overall_avg_mshr_miss_latency::.cpu.data 100925.262039                       # average overall mshr miss latency
system.cpu.dcache.overall_avg_mshr_miss_latency::total 100925.262039                       # average overall mshr miss latency
system.cpu.dcache.replacements                  19237                       # number of replacements
system.cpu.dcache.ReadReq_hits::.cpu.data     20433929                       # number of ReadReq hits
system.cpu.dcache.ReadReq_hits::total        20433929                       # number of ReadReq hits
system.cpu.dcache.ReadReq_misses::.cpu.data        10728                       # number of ReadReq misses
system.cpu.dcache.ReadReq_misses::total         10728                       # number of ReadReq misses
system.cpu.dcache.ReadReq_miss_latency::.cpu.data    846569000                       # number of ReadReq miss cycles
system.cpu.dcache.ReadReq_miss_latency::total    846569000                       # number of ReadReq miss cycles
system.cpu.dcache.ReadReq_accesses::.cpu.data     20444657                       # number of ReadReq accesses(hits+misses)
system.cpu.dcache.ReadReq_accesses::total     20444657                       # number of ReadReq accesses(hits+misses)
system.cpu.dcache.ReadReq_miss_rate::.cpu.data     0.000525                       # miss rate for ReadReq accesses
system.cpu.dcache.ReadReq_miss_rate::total     0.000525                       # miss rate for ReadReq accesses
system.cpu.dcache.ReadReq_avg_miss_latency::.cpu.data 78912.099180                       # average ReadReq miss latency
system.cpu.dcache.ReadReq_avg_miss_latency::total 78912.099180                       # average ReadReq miss latency
system.cpu.dcache.ReadReq_mshr_hits::.cpu.data          486                       # number of ReadReq MSHR hits
system.cpu.dcache.ReadReq_mshr_hits::total          486                       # number of ReadReq MSHR hits
system.cpu.dcache.ReadReq_mshr_misses::.cpu.data        10242                       # number of ReadReq MSHR misses
system.cpu.dcache.ReadReq_mshr_misses::total        10242                       # number of ReadReq MSHR misses
system.cpu.dcache.ReadReq_mshr_miss_latency::.cpu.data    800007000                       # number of ReadReq MSHR miss cycles
system.cpu.dcache.ReadReq_mshr_miss_latency::total    800007000                       # number of ReadReq MSHR miss cycles
system.cpu.dcache.ReadReq_mshr_miss_rate::.cpu.data     0.000501                       # mshr miss rate for ReadReq accesses
system.cpu.dcache.ReadReq_mshr_miss_rate::total     0.000501                       # mshr miss rate for ReadReq accesses
system.cpu.dcache.ReadReq_avg_mshr_miss_latency::.cpu.data 78110.427651                       # average ReadReq mshr miss latency
system.cpu.dcache.ReadReq_avg_mshr_miss_latency::total 78110.427651                       # average ReadReq mshr miss latency
system.cpu.dcache.WriteReq_hits::.cpu.data     14167700                       # number of WriteReq hits
system.cpu.dcache.WriteReq_hits::total       14167700                       # number of WriteReq hits
system.cpu.dcache.WriteReq_misses::.cpu.data        13628                       # number of WriteReq misses
system.cpu.dcache.WriteReq_misses::total        13628                       # number of WriteReq misses
system.cpu.dcache.WriteReq_miss_latency::.cpu.data   1625091000                       # number of WriteReq miss cycles
system.cpu.dcache.WriteReq_miss_latency::total   1625091000                       # number of WriteReq miss cycles
system.cpu.dcache.WriteReq_accesses::.cpu.data     14181328                       # number of WriteReq accesses(hits+misses)
system.cpu.dcache.WriteReq_accesses::total     14181328                       # number of WriteReq accesses(hits+misses)
system.cpu.dcache.WriteReq_miss_rate::.cpu.data     0.000961                       # miss rate for WriteReq accesses
system.cpu.dcache.WriteReq_miss_rate::total     0.000961                       # miss rate for WriteReq accesses
system.cpu.dcache.WriteReq_avg_miss_latency::.cpu.data 119246.477840                       # average WriteReq miss latency
system.cpu.dcache.WriteReq_avg_miss_latency::total 119246.477840                       # average WriteReq miss latency
system.cpu.dcache.WriteReq_mshr_hits::.cpu.data         4132                       # number of WriteReq MSHR hits
system.cpu.dcache.WriteReq_mshr_hits::total         4132                       # number of WriteReq MSHR hits
system.cpu.dcache.WriteReq_mshr_misses::.cpu.data         9496                       # number of WriteReq MSHR misses
system.cpu.dcache.WriteReq_mshr_misses::total         9496                       # number of WriteReq MSHR misses
system.cpu.dcache.WriteReq_mshr_miss_latency::.cpu.data   1192027000                       # number of WriteReq MSHR miss cycles
system.cpu.dcache.WriteReq_mshr_miss_latency::total   1192027000                       # number of WriteReq MSHR miss cycles
system.cpu.dcache.WriteReq_mshr_miss_rate::.cpu.data     0.000670                       # mshr miss rate for WriteReq accesses
system.cpu.dcache.WriteReq_mshr_miss_rate::total     0.000670                       # mshr miss rate for WriteReq accesses
system.cpu.dcache.WriteReq_avg_mshr_miss_latency::.cpu.data 125529.380792                       # average WriteReq mshr miss latency
system.cpu.dcache.WriteReq_avg_mshr_miss_latency::total 125529.380792                       # average WriteReq mshr miss latency
system.cpu.dcache.SoftPFReq_hits::.cpu.data         3107                       # number of SoftPFReq hits
system.cpu.dcache.SoftPFReq_hits::total          3107                       # number of SoftPFReq hits
system.cpu.dcache.SoftPFReq_misses::.cpu.data           22                       # number of SoftPFReq misses
system.cpu.dcache.SoftPFReq_misses::total           22                       # number of SoftPFReq misses
system.cpu.dcache.SoftPFReq_accesses::.cpu.data         3129                       # number of SoftPFReq accesses(hits+misses)
system.cpu.dcache.SoftPFReq_accesses::total         3129                       # number of SoftPFReq accesses(hits+misses)
system.cpu.dcache.SoftPFReq_miss_rate::.cpu.data     0.007031                       # miss rate for SoftPFReq accesses
system.cpu.dcache.SoftPFReq_miss_rate::total     0.007031                       # miss rate for SoftPFReq accesses
system.cpu.dcache.SoftPFReq_mshr_misses::.cpu.data           11                       # number of SoftPFReq MSHR misses
system.cpu.dcache.SoftPFReq_mshr_misses::total           11                       # number of SoftPFReq MSHR misses
system.cpu.dcache.SoftPFReq_mshr_miss_latency::.cpu.data      1139000                       # number of SoftPFReq MSHR miss cycles
system.cpu.dcache.SoftPFReq_mshr_miss_latency::total      1139000                       # number of SoftPFReq MSHR miss cycles
system.cpu.dcache.SoftPFReq_mshr_miss_rate::.cpu.data     0.003516                       # mshr miss rate for SoftPFReq accesses
system.cpu.dcache.SoftPFReq_mshr_miss_rate::total     0.003516                       # mshr miss rate for SoftPFReq accesses
system.cpu.dcache.SoftPFReq_avg_mshr_miss_latency::.cpu.data 103545.454545                       # average SoftPFReq mshr miss latency
system.cpu.dcache.SoftPFReq_avg_mshr_miss_latency::total 103545.454545                       # average SoftPFReq mshr miss latency
system.cpu.dcache.LoadLockedReq_hits::.cpu.data        85610                       # number of LoadLockedReq hits
system.cpu.dcache.LoadLockedReq_hits::total        85610                       # number of LoadLockedReq hits
system.cpu.dcache.LoadLockedReq_accesses::.cpu.data        85610                       # number of LoadLockedReq accesses(hits+misses)
system.cpu.dcache.LoadLockedReq_accesses::total        85610                       # number of LoadLockedReq accesses(hits+misses)
system.cpu.dcache.StoreCondReq_hits::.cpu.data        85610                       # number of StoreCondReq hits
system.cpu.dcache.StoreCondReq_hits::total        85610                       # number of StoreCondReq hits
system.cpu.dcache.StoreCondReq_accesses::.cpu.data        85610                       # number of StoreCondReq accesses(hits+misses)
system.cpu.dcache.StoreCondReq_accesses::total        85610                       # number of StoreCondReq accesses(hits+misses)
system.cpu.dcache.power_state.pwrStateResidencyTicks::UNDEFINED 107192581000                       # Cumulative time (in ticks) in various power states
system.cpu.dcache.tags.tagsinuse           509.598664                       # Cycle average of tags in use
system.cpu.dcache.tags.total_refs            34795705                       # Total number of references to valid blocks.
system.cpu.dcache.tags.sampled_refs             19749                       # Sample count of references to valid blocks.
system.cpu.dcache.tags.avg_refs           1761.897058                       # Average number of references to valid blocks.
system.cpu.dcache.tags.warmup_cycle            258000                       # Cycle when the warmup percentage was hit.
system.cpu.dcache.tags.occ_blocks::.cpu.data   509.598664                       # Average occupied blocks per requestor
system.cpu.dcache.tags.occ_percent::.cpu.data     0.995310                       # Average percentage of cache occupancy
system.cpu.dcache.tags.occ_percent::total     0.995310                       # Average percentage of cache occupancy
system.cpu.dcache.tags.occ_task_id_blocks::1024          512                       # Occupied blocks per task id
system.cpu.dcache.tags.age_task_id_blocks_1024::0            1                       # Occupied blocks per task id
system.cpu.dcache.tags.age_task_id_blocks_1024::1            9                       # Occupied blocks per task id
system.cpu.dcache.tags.age_task_id_blocks_1024::2           91                       # Occupied blocks per task id
system.cpu.dcache.tags.age_task_id_blocks_1024::3          368                       # Occupied blocks per task id
system.cpu.dcache.tags.age_task_id_blocks_1024::4           43                       # Occupied blocks per task id
system.cpu.dcache.tags.occ_task_id_percent::1024            1                       # Percentage of cache occupancy per task id
system.cpu.dcache.tags.tag_accesses         278422421                       # Number of tag accesses
system.cpu.dcache.tags.data_accesses        278422421                       # Number of data accesses
system.cpu.dcache.tags.power_state.pwrStateResidencyTicks::UNDEFINED 107192581000                       # Cumulative time (in ticks) in various power states
system.cpu.dtb.instHits                             0                       # ITB inst hits
system.cpu.dtb.instMisses                           0                       # ITB inst misses
system.cpu.dtb.readHits                             0                       # DTB read hits
system.cpu.dtb.readMisses                           0                       # DTB read misses
system.cpu.dtb.writeHits                            0                       # DTB write hits
system.cpu.dtb.writeMisses                          0                       # DTB write misses
system.cpu.dtb.inserts                              0                       # Number of times an entry is inserted into the TLB
system.cpu.dtb.flushTlb                             0                       # Number of times complete TLB was flushed
system.cpu.dtb.flushTlbMva                          0                       # Number of times TLB was flushed by MVA
system.cpu.dtb.flushTlbMvaAsid                      0                       # Number of times TLB was flushed by MVA & ASID
system.cpu.dtb.flushTlbAsid                         0                       # Number of times TLB was flushed by ASID
system.cpu.dtb.flushedEntries                       0                       # Number of entries that have been flushed from TLB
system.cpu.dtb.alignFaults                          0                       # Number of TLB faults due to alignment restrictions
system.cpu.dtb.prefetchFaults                       0                       # Number of TLB faults due to prefetch
system.cpu.dtb.domainFaults                         0                       # Number of TLB faults due to domain restrictions
system.cpu.dtb.permsFaults                          0                       # Number of TLB faults due to permissions restrictions
system.cpu.dtb.readAccesses                         0                       # DTB read accesses
system.cpu.dtb.writeAccesses                        0                       # DTB write accesses
system.cpu.dtb.instAccesses                         0                       # ITB inst accesses
system.cpu.dtb.hits                                 0                       # Total TLB (inst and data) hits
system.cpu.dtb.misses                               0                       # Total TLB (inst and data) misses
system.cpu.dtb.accesses                             0                       # Total TLB (inst and data) accesses
system.cpu.dtb.stage2_mmu.stage2_tlb.instHits            0                       # ITB inst hits
system.cpu.dtb.stage2_mmu.stage2_tlb.instMisses            0                       # ITB inst misses
system.cpu.dtb.stage2_mmu.stage2_tlb.readHits            0                       # DTB read hits
system.cpu.dtb.stage2_mmu.stage2_tlb.readMisses            0                       # DTB read misses
system.cpu.dtb.stage2_mmu.stage2_tlb.writeHits            0                       # DTB write hits
system.cpu.dtb.stage2_mmu.stage2_tlb.writeMisses            0                       # DTB write misses
system.cpu.dtb.stage2_mmu.stage2_tlb.inserts            0                       # Number of times an entry is inserted into the TLB
system.cpu.dtb.stage2_mmu.stage2_tlb.flushTlb            0                       # Number of times complete TLB was flushed
system.cpu.dtb.stage2_mmu.stage2_tlb.flushTlbMva            0                       # Number of times TLB was flushed by MVA
system.cpu.dtb.stage2_mmu.stage2_tlb.flushTlbMvaAsid            0                       # Number of times TLB was flushed by MVA & ASID
system.cpu.dtb.stage2_mmu.stage2_tlb.flushTlbAsid            0                       # Number of times TLB was flushed by ASID
system.cpu.dtb.stage2_mmu.stage2_tlb.flushedEntries            0                       # Number of entries that have been flushed from TLB
system.cpu.dtb.stage2_mmu.stage2_tlb.alignFaults            0                       # Number of TLB faults due to alignment restrictions
system.cpu.dtb.stage2_mmu.stage2_tlb.prefetchFaults            0                       # Number of TLB faults due to prefetch
system.cpu.dtb.stage2_mmu.stage2_tlb.domainFaults            0                       # Number of TLB faults due to domain restrictions
system.cpu.dtb.stage2_mmu.stage2_tlb.permsFaults            0                       # Number of TLB faults due to permissions restrictions
system.cpu.dtb.stage2_mmu.stage2_tlb.readAccesses            0                       # DTB read accesses
system.cpu.dtb.stage2_mmu.stage2_tlb.writeAccesses            0                       # DTB write accesses
system.cpu.dtb.stage2_mmu.stage2_tlb.instAccesses            0                       # ITB inst accesses
system.cpu.dtb.stage2_mmu.stage2_tlb.hits            0                       # Total TLB (inst and data) hits
system.cpu.dtb.stage2_mmu.stage2_tlb.misses            0                       # Total TLB (inst and data) misses
system.cpu.dtb.stage2_mmu.stage2_tlb.accesses            0                       # Total TLB (inst and data) accesses
system.cpu.dtb.stage2_mmu.stage2_tlb.walker.walks            0                       # Table walker walks requested
system.cpu.dtb.stage2_mmu.stage2_tlb.walker.requestOrigin_Requested::Data            0                       # Table walker requests started/completed, data/inst
system.cpu.dtb.stage2_mmu.stage2_tlb.walker.requestOrigin_Requested::Inst            0                       # Table walker requests started/completed, data/inst
system.cpu.dtb.stage2_mmu.stage2_tlb.walker.requestOrigin_Requested::total            0                       # Table walker requests started/completed, data/inst
system.cpu.dtb.stage2_mmu.stage2_tlb.walker.requestOrigin_Completed::Data            0                       # Table walker requests started/completed, data/inst
system.cpu.dtb.stage2_mmu.stage2_tlb.walker.requestOrigin_Completed::Inst            0                       # Table walker requests started/completed, data/inst
system.cpu.dtb.stage2_mmu.stage2_tlb.walker.requestOrigin_Completed::total            0                       # Table walker requests started/completed, data/inst
system.cpu.dtb.stage2_mmu.stage2_tlb.walker.requestOrigin::total            0                       # Table walker requests started/completed, data/inst
system.cpu.dtb.stage2_mmu.stage2_tlb.walker.power_state.pwrStateResidencyTicks::UNDEFINED 107192581000                       # Cumulative time (in ticks) in various power states
system.cpu.dtb.walker.walks                         0                       # Table walker walks requested
system.cpu.dtb.walker.requestOrigin_Requested::Data            0                       # Table walker requests started/completed, data/inst
system.cpu.dtb.walker.requestOrigin_Requested::Inst            0                       # Table walker requests started/completed, data/inst
system.cpu.dtb.walker.requestOrigin_Requested::total            0                       # Table walker requests started/completed, data/inst
system.cpu.dtb.walker.requestOrigin_Completed::Data            0                       # Table walker requests started/completed, data/inst
system.cpu.dtb.walker.requestOrigin_Completed::Inst            0                       # Table walker requests started/completed, data/inst
system.cpu.dtb.walker.requestOrigin_Completed::total            0                       # Table walker requests started/completed, data/inst
system.cpu.dtb.walker.requestOrigin::total            0                       # Table walker requests started/completed, data/inst
system.cpu.dtb.walker.power_state.pwrStateResidencyTicks::UNDEFINED 107192581000                       # Cumulative time (in ticks) in various power states
system.cpu.fetch2.intInstructions            49176878                       # Number of integer instructions successfully decoded
system.cpu.fetch2.fpInstructions                    0                       # Number of floating point instructions successfully decoded
system.cpu.fetch2.vecInstructions                   0                       # Number of SIMD instructions successfully decoded
system.cpu.fetch2.loadInstructions           17527246                       # Number of memory load instructions successfully decoded
system.cpu.fetch2.storeInstructions          10086750                       # Number of memory store instructions successfully decoded
system.cpu.fetch2.amoInstructions                   0                       # Number of memory atomic instructions successfully decoded
system.cpu.icache.demand_hits::.cpu.inst     25074594                       # number of demand (read+write) hits
system.cpu.icache.demand_hits::total         25074594                       # number of demand (read+write) hits
system.cpu.icache.overall_hits::.cpu.inst     25074594                       # number of overall hits
system.cpu.icache.overall_hits::total        25074594                       # number of overall hits
system.cpu.icache.demand_misses::.cpu.inst          232                       # number of demand (read+write) misses
system.cpu.icache.demand_misses::total            232                       # number of demand (read+write) misses
system.cpu.icache.overall_misses::.cpu.inst          232                       # number of overall misses
system.cpu.icache.overall_misses::total           232                       # number of overall misses
system.cpu.icache.demand_miss_latency::.cpu.inst     27386000                       # number of demand (read+write) miss cycles
system.cpu.icache.demand_miss_latency::total     27386000                       # number of demand (read+write) miss cycles
system.cpu.icache.overall_miss_latency::.cpu.inst     27386000                       # number of overall miss cycles
system.cpu.icache.overall_miss_latency::total     27386000                       # number of overall miss cycles
system.cpu.icache.demand_accesses::.cpu.inst     25074826                       # number of demand (read+write) accesses
system.cpu.icache.demand_accesses::total     25074826                       # number of demand (read+write) accesses
system.cpu.icache.overall_accesses::.cpu.inst     25074826                       # number of overall (read+write) accesses
system.cpu.icache.overall_accesses::total     25074826                       # number of overall (read+write) accesses
system.cpu.icache.demand_miss_rate::.cpu.inst     0.000009                       # miss rate for demand accesses
system.cpu.icache.demand_miss_rate::total     0.000009                       # miss rate for demand accesses
system.cpu.icache.overall_miss_rate::.cpu.inst     0.000009                       # miss rate for overall accesses
system.cpu.icache.overall_miss_rate::total     0.000009                       # miss rate for overall accesses
system.cpu.icache.demand_avg_miss_latency::.cpu.inst 118043.103448                       # average overall miss latency
system.cpu.icache.demand_avg_miss_latency::total 118043.103448                       # average overall miss latency
system.cpu.icache.overall_avg_miss_latency::.cpu.inst 118043.103448                       # average overall miss latency
system.cpu.icache.overall_avg_miss_latency::total 118043.103448                       # average overall miss latency
system.cpu.icache.blocked_cycles::no_mshrs            0                       # number of cycles access was blocked
system.cpu.icache.blocked_cycles::no_targets            0                       # number of cycles access was blocked
system.cpu.icache.blocked::no_mshrs                 0                       # number of cycles access was blocked
system.cpu.icache.blocked::no_targets               0                       # number of cycles access was blocked
system.cpu.icache.avg_blocked_cycles::no_mshrs          nan                       # average number of cycles each access was blocked
system.cpu.icache.avg_blocked_cycles::no_targets          nan                       # average number of cycles each access was blocked
system.cpu.icache.demand_mshr_misses::.cpu.inst          232                       # number of demand (read+write) MSHR misses
system.cpu.icache.demand_mshr_misses::total          232                       # number of demand (read+write) MSHR misses
system.cpu.icache.overall_mshr_misses::.cpu.inst          232                       # number of overall MSHR misses
system.cpu.icache.overall_mshr_misses::total          232                       # number of overall MSHR misses
system.cpu.icache.demand_mshr_miss_latency::.cpu.inst     26922000                       # number of demand (read+write) MSHR miss cycles
system.cpu.icache.demand_mshr_miss_latency::total     26922000                       # number of demand (read+write) MSHR miss cycles
system.cpu.icache.overall_mshr_miss_latency::.cpu.inst     26922000                       # number of overall MSHR miss cycles
system.cpu.icache.overall_mshr_miss_latency::total     26922000                       # number of overall MSHR miss cycles
system.cpu.icache.demand_mshr_miss_rate::.cpu.inst     0.000009                       # mshr miss rate for demand accesses
system.cpu.icache.demand_mshr_miss_rate::total     0.000009                       # mshr miss rate for demand accesses
system.cpu.icache.overall_mshr_miss_rate::.cpu.inst     0.000009                       # mshr miss rate for overall accesses
system.cpu.icache.overall_mshr_miss_rate::total     0.000009                       # mshr miss rate for overall accesses
system.cpu.icache.demand_avg_mshr_miss_latency::.cpu.inst 116043.103448                       # average overall mshr miss latency
system.cpu.icache.demand_avg_mshr_miss_latency::total 116043.103448                       # average overall mshr miss latency
system.cpu.icache.overall_avg_mshr_miss_latency::.cpu.inst 116043.103448                       # average overall mshr miss latency
system.cpu.icache.overall_avg_mshr_miss_latency::total 116043.103448                       # average overall mshr miss latency
system.cpu.icache.replacements                      0                       # number of replacements
system.cpu.icache.ReadReq_hits::.cpu.inst     25074594                       # number of ReadReq hits
system.cpu.icache.ReadReq_hits::total        25074594                       # number of ReadReq hits
system.cpu.icache.ReadReq_misses::.cpu.inst          232                       # number of ReadReq misses
system.cpu.icache.ReadReq_misses::total           232                       # number of ReadReq misses
system.cpu.icache.ReadReq_miss_latency::.cpu.inst     27386000                       # number of ReadReq miss cycles
system.cpu.icache.ReadReq_miss_latency::total     27386000                       # number of ReadReq miss cycles
system.cpu.icache.ReadReq_accesses::.cpu.inst     25074826                       # number of ReadReq accesses(hits+misses)
system.cpu.icache.ReadReq_accesses::total     25074826                       # number of ReadReq accesses(hits+misses)
system.cpu.icache.ReadReq_miss_rate::.cpu.inst     0.000009                       # miss rate for ReadReq accesses
system.cpu.icache.ReadReq_miss_rate::total     0.000009                       # miss rate for ReadReq accesses
system.cpu.icache.ReadReq_avg_miss_latency::.cpu.inst 118043.103448                       # average ReadReq miss latency
system.cpu.icache.ReadReq_avg_miss_latency::total 118043.103448                       # average ReadReq miss latency
system.cpu.icache.ReadReq_mshr_misses::.cpu.inst          232                       # number of ReadReq MSHR misses
system.cpu.icache.ReadReq_mshr_misses::total          232                       # number of ReadReq MSHR misses
system.cpu.icache.ReadReq_mshr_miss_latency::.cpu.inst     26922000                       # number of ReadReq MSHR miss cycles
system.cpu.icache.ReadReq_mshr_miss_latency::total     26922000                       # number of ReadReq MSHR miss cycles
system.cpu.icache.ReadReq_mshr_miss_rate::.cpu.inst     0.000009                       # mshr miss rate for ReadReq accesses
system.cpu.icache.ReadReq_mshr_miss_rate::total     0.000009                       # mshr miss rate for ReadReq accesses
system.cpu.icache.ReadReq_avg_mshr_miss_latency::.cpu.inst 116043.103448                       # average ReadReq mshr miss latency
system.cpu.icache.ReadReq_avg_mshr_miss_latency::total 116043.103448                       # average ReadReq mshr miss latency
system.cpu.icache.power_state.pwrStateResidencyTicks::UNDEFINED 107192581000                       # Cumulative time (in ticks) in various power states
system.cpu.icache.tags.tagsinuse           231.697048                       # Cycle average of tags in use
system.cpu.icache.tags.total_refs            25074826                       # Total number of references to valid blocks.
system.cpu.icache.tags.sampled_refs               232                       # Sample count of references to valid blocks.
system.cpu.icache.tags.avg_refs          108081.146552                       # Average number of references to valid blocks.
system.cpu.icache.tags.warmup_cycle            123000                       # Cycle when the warmup percentage was hit.
system.cpu.icache.tags.occ_blocks::.cpu.inst   231.697048                       # Average occupied blocks per requestor
system.cpu.icache.tags.occ_percent::.cpu.inst     0.452533                       # Average percentage of cache occupancy
system.cpu.icache.tags.occ_percent::total     0.452533                       # Average percentage of cache occupancy
system.cpu.icache.tags.occ_task_id_blocks::1024          232                       # Occupied blocks per task id
system.cpu.icache.tags.age_task_id_blocks_1024::4          232                       # Occupied blocks per task id
system.cpu.icache.tags.occ_task_id_percent::1024     0.453125                       # Percentage of cache occupancy per task id
system.cpu.icache.tags.tag_accesses         200598840                       # Number of tag accesses
system.cpu.icache.tags.data_accesses        200598840                       # Number of data accesses
system.cpu.icache.tags.power_state.pwrStateResidencyTicks::UNDEFINED 107192581000                       # Cumulative time (in ticks) in various power states
system.cpu.itb.instHits                             0                       # ITB inst hits
system.cpu.itb.instMisses                           0                       # ITB inst misses
system.cpu.itb.readHits                             0                       # DTB read hits
system.cpu.itb.readMisses                           0                       # DTB read misses
system.cpu.itb.writeHits                            0                       # DTB write hits
system.cpu.itb.writeMisses                          0                       # DTB write misses
system.cpu.itb.inserts                              0                       # Number of times an entry is inserted into the TLB
system.cpu.itb.flushTlb                             0                       # Number of times complete TLB was flushed
system.cpu.itb.flushTlbMva                          0                       # Number of times TLB was flushed by MVA
system.cpu.itb.flushTlbMvaAsid                      0                       # Number of times TLB was flushed by MVA & ASID
system.cpu.itb.flushTlbAsid                         0                       # Number of times TLB was flushed by ASID
system.cpu.itb.flushedEntries                       0                       # Number of entries that have been flushed from TLB
system.cpu.itb.alignFaults                          0                       # Number of TLB faults due to alignment restrictions
system.cpu.itb.prefetchFaults                       0                       # Number of TLB faults due to prefetch
system.cpu.itb.domainFaults                         0                       # Number of TLB faults due to domain restrictions
system.cpu.itb.permsFaults                          0                       # Number of TLB faults due to permissions restrictions
system.cpu.itb.readAccesses                         0                       # DTB read accesses
system.cpu.itb.writeAccesses                        0                       # DTB write accesses
system.cpu.itb.instAccesses                         0                       # ITB inst accesses
system.cpu.itb.hits                                 0                       # Total TLB (inst and data) hits
system.cpu.itb.misses                               0                       # Total TLB (inst and data) misses
system.cpu.itb.accesses                             0                       # Total TLB (inst and data) accesses
system.cpu.itb.stage2_mmu.stage2_tlb.instHits            0                       # ITB inst hits
system.cpu.itb.stage2_mmu.stage2_tlb.instMisses            0                       # ITB inst misses
system.cpu.itb.stage2_mmu.stage2_tlb.readHits            0                       # DTB read hits
system.cpu.itb.stage2_mmu.stage2_tlb.readMisses            0                       # DTB read misses
system.cpu.itb.stage2_mmu.stage2_tlb.writeHits            0                       # DTB write hits
system.cpu.itb.stage2_mmu.stage2_tlb.writeMisses            0                       # DTB write misses
system.cpu.itb.stage2_mmu.stage2_tlb.inserts            0                       # Number of times an entry is inserted into the TLB
system.cpu.itb.stage2_mmu.stage2_tlb.flushTlb            0                       # Number of times complete TLB was flushed
system.cpu.itb.stage2_mmu.stage2_tlb.flushTlbMva            0                       # Number of times TLB was flushed by MVA
system.cpu.itb.stage2_mmu.stage2_tlb.flushTlbMvaAsid            0                       # Number of times TLB was flushed by MVA & ASID
system.cpu.itb.stage2_mmu.stage2_tlb.flushTlbAsid            0                       # Number of times TLB was flushed by ASID
system.cpu.itb.stage2_mmu.stage2_tlb.flushedEntries            0                       # Number of entries that have been flushed from TLB
system.cpu.itb.stage2_mmu.stage2_tlb.alignFaults            0                       # Number of TLB faults due to alignment restrictions
system.cpu.itb.stage2_mmu.stage2_tlb.prefetchFaults            0                       # Number of TLB faults due to prefetch
system.cpu.itb.stage2_mmu.stage2_tlb.domainFaults            0                       # Number of TLB faults due to domain restrictions
system.cpu.itb.stage2_mmu.stage2_tlb.permsFaults            0                       # Number of TLB faults due to permissions restrictions
system.cpu.itb.stage2_mmu.stage2_tlb.readAccesses            0                       # DTB read accesses
system.cpu.itb.stage2_mmu.stage2_tlb.writeAccesses            0                       # DTB write accesses
system.cpu.itb.stage2_mmu.stage2_tlb.instAccesses            0                       # ITB inst accesses
system.cpu.itb.stage2_mmu.stage2_tlb.hits            0                       # Total TLB (inst and data) hits
system.cpu.itb.stage2_mmu.stage2_tlb.misses            0                       # Total TLB (inst and data) misses
system.cpu.itb.stage2_mmu.stage2_tlb.accesses            0                       # Total TLB (inst and data) accesses
system.cpu.itb.stage2_mmu.stage2_tlb.walker.walks            0                       # Table walker walks requested
system.cpu.itb.stage2_mmu.stage2_tlb.walker.requestOrigin_Requested::Data            0                       # Table walker requests started/completed, data/inst
system.cpu.itb.stage2_mmu.stage2_tlb.walker.requestOrigin_Requested::Inst            0                       # Table walker requests started/completed, data/inst
system.cpu.itb.stage2_mmu.stage2_tlb.walker.requestOrigin_Requested::total            0                       # Table walker requests started/completed, data/inst
system.cpu.itb.stage2_mmu.stage2_tlb.walker.requestOrigin_Completed::Data            0                       # Table walker requests started/completed, data/inst
system.cpu.itb.stage2_mmu.stage2_tlb.walker.requestOrigin_Completed::Inst            0                       # Table walker requests started/completed, data/inst
system.cpu.itb.stage2_mmu.stage2_tlb.walker.requestOrigin_Completed::total            0                       # Table walker requests started/completed, data/inst
system.cpu.itb.stage2_mmu.stage2_tlb.walker.requestOrigin::total            0                       # Table walker requests started/completed, data/inst
system.cpu.itb.stage2_mmu.stage2_tlb.walker.power_state.pwrStateResidencyTicks::UNDEFINED 107192581000                       # Cumulative time (in ticks) in various power states
system.cpu.itb.walker.walks                         0                       # Table walker walks requested
system.cpu.itb.walker.requestOrigin_Requested::Data            0                       # Table walker requests started/completed, data/inst
system.cpu.itb.walker.requestOrigin_Requested::Inst            0                       # Table walker requests started/completed, data/inst
system.cpu.itb.walker.requestOrigin_Requested::total            0                       # Table walker requests started/completed, data/inst
system.cpu.itb.walker.requestOrigin_Completed::Data            0                       # Table walker requests started/completed, data/inst
system.cpu.itb.walker.requestOrigin_Completed::Inst            0                       # Table walker requests started/completed, data/inst
system.cpu.itb.walker.requestOrigin_Completed::total            0                       # Table walker requests started/completed, data/inst
system.cpu.itb.walker.requestOrigin::total            0                       # Table walker requests started/completed, data/inst
system.cpu.itb.walker.power_state.pwrStateResidencyTicks::UNDEFINED 107192581000                       # Cumulative time (in ticks) in various power states
system.cpu.power_state.pwrStateResidencyTicks::ON 107192581000                       # Cumulative time (in ticks) in various power states
system.cpu.thread_0.numInsts                100000001                       # Number of Instructions committed
system.cpu.thread_0.numOps                  109139393                       # Number of Ops committed
system.cpu.thread_0.numMemRefs                      0                       # Number of Memory References
system.cpu_clk_domain.clock                      1000                       # Clock period in ticks
system.cpu_voltage_domain.voltage                   1                       # Voltage in Volts
system.l2.demand_hits::.cpu.inst                    5                       # number of demand (read+write) hits
system.l2.demand_hits::.cpu.data                 4914                       # number of demand (read+write) hits
system.l2.demand_hits::total                     4919                       # number of demand (read+write) hits
system.l2.overall_hits::.cpu.inst                   5                       # number of overall hits
system.l2.overall_hits::.cpu.data                4914                       # number of overall hits
system.l2.overall_hits::total                    4919                       # number of overall hits
system.l2.demand_misses::.cpu.inst                227                       # number of demand (read+write) misses
system.l2.demand_misses::.cpu.data              14835                       # number of demand (read+write) misses
system.l2.demand_misses::total                  15062                       # number of demand (read+write) misses
system.l2.overall_misses::.cpu.inst               227                       # number of overall misses
system.l2.overall_misses::.cpu.data             14835                       # number of overall misses
system.l2.overall_misses::total                 15062                       # number of overall misses
system.l2.demand_miss_latency::.cpu.inst     26111000                       # number of demand (read+write) miss cycles
system.l2.demand_miss_latency::.cpu.data   1830692000                       # number of demand (read+write) miss cycles
system.l2.demand_miss_latency::total       1856803000                       # number of demand (read+write) miss cycles
system.l2.overall_miss_latency::.cpu.inst     26111000                       # number of overall miss cycles
system.l2.overall_miss_latency::.cpu.data   1830692000                       # number of overall miss cycles
system.l2.overall_miss_latency::total      1856803000                       # number of overall miss cycles
system.l2.demand_accesses::.cpu.inst              232                       # number of demand (read+write) accesses
system.l2.demand_accesses::.cpu.data            19749                       # number of demand (read+write) accesses
system.l2.demand_accesses::total                19981                       # number of demand (read+write) accesses
system.l2.overall_accesses::.cpu.inst             232                       # number of overall (read+write) accesses
system.l2.overall_accesses::.cpu.data           19749                       # number of overall (read+write) accesses
system.l2.overall_accesses::total               19981                       # number of overall (read+write) accesses
system.l2.demand_miss_rate::.cpu.inst        0.978448                       # miss rate for demand accesses
system.l2.demand_miss_rate::.cpu.data        0.751177                       # miss rate for demand accesses
system.l2.demand_miss_rate::total            0.753816                       # miss rate for demand accesses
system.l2.overall_miss_rate::.cpu.inst       0.978448                       # miss rate for overall accesses
system.l2.overall_miss_rate::.cpu.data       0.751177                       # miss rate for overall accesses
system.l2.overall_miss_rate::total           0.753816                       # miss rate for overall accesses
system.l2.demand_avg_miss_latency::.cpu.inst 115026.431718                       # average overall miss latency
system.l2.demand_avg_miss_latency::.cpu.data 123403.572632                       # average overall miss latency
system.l2.demand_avg_miss_latency::total 123277.320409                       # average overall miss latency
system.l2.overall_avg_miss_latency::.cpu.inst 115026.431718                       # average overall miss latency
system.l2.overall_avg_miss_latency::.cpu.data 123403.572632                       # average overall miss latency
system.l2.overall_avg_miss_latency::total 123277.320409                       # average overall miss latency
system.l2.blocked_cycles::no_mshrs                  0                       # number of cycles access was blocked
system.l2.blocked_cycles::no_targets                0                       # number of cycles access was blocked
system.l2.blocked::no_mshrs                         0                       # number of cycles access was blocked
system.l2.blocked::no_targets                       0                       # number of cycles access was blocked
system.l2.avg_blocked_cycles::no_mshrs            nan                       # average number of cycles each access was blocked
system.l2.avg_blocked_cycles::no_targets          nan                       # average number of cycles each access was blocked
system.l2.writebacks::.writebacks               12654                       # number of writebacks
system.l2.writebacks::total                     12654                       # number of writebacks
system.l2.demand_mshr_hits::.cpu.data               3                       # number of demand (read+write) MSHR hits
system.l2.demand_mshr_hits::total                   3                       # number of demand (read+write) MSHR hits
system.l2.overall_mshr_hits::.cpu.data              3                       # number of overall MSHR hits
system.l2.overall_mshr_hits::total                  3                       # number of overall MSHR hits
system.l2.demand_mshr_misses::.cpu.inst           227                       # number of demand (read+write) MSHR misses
system.l2.demand_mshr_misses::.cpu.data         14832                       # number of demand (read+write) MSHR misses
system.l2.demand_mshr_misses::total             15059                       # number of demand (read+write) MSHR misses
system.l2.overall_mshr_misses::.cpu.inst          227                       # number of overall MSHR misses
system.l2.overall_mshr_misses::.cpu.data        14832                       # number of overall MSHR misses
system.l2.overall_mshr_misses::total            15059                       # number of overall MSHR misses
system.l2.demand_mshr_miss_latency::.cpu.inst     21571000                       # number of demand (read+write) MSHR miss cycles
system.l2.demand_mshr_miss_latency::.cpu.data   1533731000                       # number of demand (read+write) MSHR miss cycles
system.l2.demand_mshr_miss_latency::total   1555302000                       # number of demand (read+write) MSHR miss cycles
system.l2.overall_mshr_miss_latency::.cpu.inst     21571000                       # number of overall MSHR miss cycles
system.l2.overall_mshr_miss_latency::.cpu.data   1533731000                       # number of overall MSHR miss cycles
system.l2.overall_mshr_miss_latency::total   1555302000                       # number of overall MSHR miss cycles
system.l2.demand_mshr_miss_rate::.cpu.inst     0.978448                       # mshr miss rate for demand accesses
system.l2.demand_mshr_miss_rate::.cpu.data     0.751025                       # mshr miss rate for demand accesses
system.l2.demand_mshr_miss_rate::total       0.753666                       # mshr miss rate for demand accesses
system.l2.overall_mshr_miss_rate::.cpu.inst     0.978448                       # mshr miss rate for overall accesses
system.l2.overall_mshr_miss_rate::.cpu.data     0.751025                       # mshr miss rate for overall accesses
system.l2.overall_mshr_miss_rate::total      0.753666                       # mshr miss rate for overall accesses
system.l2.demand_avg_mshr_miss_latency::.cpu.inst 95026.431718                       # average overall mshr miss latency
system.l2.demand_avg_mshr_miss_latency::.cpu.data 103406.890507                       # average overall mshr miss latency
system.l2.demand_avg_mshr_miss_latency::total 103280.563118                       # average overall mshr miss latency
system.l2.overall_avg_mshr_miss_latency::.cpu.inst 95026.431718                       # average overall mshr miss latency
system.l2.overall_avg_mshr_miss_latency::.cpu.data 103406.890507                       # average overall mshr miss latency
system.l2.overall_avg_mshr_miss_latency::total 103280.563118                       # average overall mshr miss latency
system.l2.replacements                          13063                       # number of replacements
system.l2.WritebackDirty_hits::.writebacks        18668                       # number of WritebackDirty hits
system.l2.WritebackDirty_hits::total            18668                       # number of WritebackDirty hits
system.l2.WritebackDirty_accesses::.writebacks        18668                       # number of WritebackDirty accesses(hits+misses)
system.l2.WritebackDirty_accesses::total        18668                       # number of WritebackDirty accesses(hits+misses)
system.l2.CleanEvict_mshr_misses::.writebacks           74                       # number of CleanEvict MSHR misses
system.l2.CleanEvict_mshr_misses::total            74                       # number of CleanEvict MSHR misses
system.l2.CleanEvict_mshr_miss_rate::.writebacks          inf                       # mshr miss rate for CleanEvict accesses
system.l2.CleanEvict_mshr_miss_rate::total          inf                       # mshr miss rate for CleanEvict accesses
system.l2.ReadExReq_misses::.cpu.data            9496                       # number of ReadExReq misses
system.l2.ReadExReq_misses::total                9496                       # number of ReadExReq misses
system.l2.ReadExReq_miss_latency::.cpu.data   1163539000                       # number of ReadExReq miss cycles
system.l2.ReadExReq_miss_latency::total    1163539000                       # number of ReadExReq miss cycles
system.l2.ReadExReq_accesses::.cpu.data          9496                       # number of ReadExReq accesses(hits+misses)
system.l2.ReadExReq_accesses::total              9496                       # number of ReadExReq accesses(hits+misses)
system.l2.ReadExReq_miss_rate::.cpu.data            1                       # miss rate for ReadExReq accesses
system.l2.ReadExReq_miss_rate::total                1                       # miss rate for ReadExReq accesses
system.l2.ReadExReq_avg_miss_latency::.cpu.data 122529.380792                       # average ReadExReq miss latency
system.l2.ReadExReq_avg_miss_latency::total 122529.380792                       # average ReadExReq miss latency
system.l2.ReadExReq_mshr_misses::.cpu.data         9496                       # number of ReadExReq MSHR misses
system.l2.ReadExReq_mshr_misses::total           9496                       # number of ReadExReq MSHR misses
system.l2.ReadExReq_mshr_miss_latency::.cpu.data    973619000                       # number of ReadExReq MSHR miss cycles
system.l2.ReadExReq_mshr_miss_latency::total    973619000                       # number of ReadExReq MSHR miss cycles
system.l2.ReadExReq_mshr_miss_rate::.cpu.data            1                       # mshr miss rate for ReadExReq accesses
system.l2.ReadExReq_mshr_miss_rate::total            1                       # mshr miss rate for ReadExReq accesses
system.l2.ReadExReq_avg_mshr_miss_latency::.cpu.data 102529.380792                       # average ReadExReq mshr miss latency
system.l2.ReadExReq_avg_mshr_miss_latency::total 102529.380792                       # average ReadExReq mshr miss latency
system.l2.ReadCleanReq_hits::.cpu.inst              5                       # number of ReadCleanReq hits
system.l2.ReadCleanReq_hits::total                  5                       # number of ReadCleanReq hits
system.l2.ReadCleanReq_misses::.cpu.inst          227                       # number of ReadCleanReq misses
system.l2.ReadCleanReq_misses::total              227                       # number of ReadCleanReq misses
system.l2.ReadCleanReq_miss_latency::.cpu.inst     26111000                       # number of ReadCleanReq miss cycles
system.l2.ReadCleanReq_miss_latency::total     26111000                       # number of ReadCleanReq miss cycles
system.l2.ReadCleanReq_accesses::.cpu.inst          232                       # number of ReadCleanReq accesses(hits+misses)
system.l2.ReadCleanReq_accesses::total            232                       # number of ReadCleanReq accesses(hits+misses)
system.l2.ReadCleanReq_miss_rate::.cpu.inst     0.978448                       # miss rate for ReadCleanReq accesses
system.l2.ReadCleanReq_miss_rate::total      0.978448                       # miss rate for ReadCleanReq accesses
system.l2.ReadCleanReq_avg_miss_latency::.cpu.inst 115026.431718                       # average ReadCleanReq miss latency
system.l2.ReadCleanReq_avg_miss_latency::total 115026.431718                       # average ReadCleanReq miss latency
system.l2.ReadCleanReq_mshr_misses::.cpu.inst          227                       # number of ReadCleanReq MSHR misses
system.l2.ReadCleanReq_mshr_misses::total          227                       # number of ReadCleanReq MSHR misses
system.l2.ReadCleanReq_mshr_miss_latency::.cpu.inst     21571000                       # number of ReadCleanReq MSHR miss cycles
system.l2.ReadCleanReq_mshr_miss_latency::total     21571000                       # number of ReadCleanReq MSHR miss cycles
system.l2.ReadCleanReq_mshr_miss_rate::.cpu.inst     0.978448                       # mshr miss rate for ReadCleanReq accesses
system.l2.ReadCleanReq_mshr_miss_rate::total     0.978448                       # mshr miss rate for ReadCleanReq accesses
system.l2.ReadCleanReq_avg_mshr_miss_latency::.cpu.inst 95026.431718                       # average ReadCleanReq mshr miss latency
system.l2.ReadCleanReq_avg_mshr_miss_latency::total 95026.431718                       # average ReadCleanReq mshr miss latency
system.l2.ReadSharedReq_hits::.cpu.data          4914                       # number of ReadSharedReq hits
system.l2.ReadSharedReq_hits::total              4914                       # number of ReadSharedReq hits
system.l2.ReadSharedReq_misses::.cpu.data         5339                       # number of ReadSharedReq misses
system.l2.ReadSharedReq_misses::total            5339                       # number of ReadSharedReq misses
system.l2.ReadSharedReq_miss_latency::.cpu.data    667153000                       # number of ReadSharedReq miss cycles
system.l2.ReadSharedReq_miss_latency::total    667153000                       # number of ReadSharedReq miss cycles
system.l2.ReadSharedReq_accesses::.cpu.data        10253                       # number of ReadSharedReq accesses(hits+misses)
system.l2.ReadSharedReq_accesses::total         10253                       # number of ReadSharedReq accesses(hits+misses)
system.l2.ReadSharedReq_miss_rate::.cpu.data     0.520726                       # miss rate for ReadSharedReq accesses
system.l2.ReadSharedReq_miss_rate::total     0.520726                       # miss rate for ReadSharedReq accesses
system.l2.ReadSharedReq_avg_miss_latency::.cpu.data 124958.419180                       # average ReadSharedReq miss latency
system.l2.ReadSharedReq_avg_miss_latency::total 124958.419180                       # average ReadSharedReq miss latency
system.l2.ReadSharedReq_mshr_hits::.cpu.data            3                       # number of ReadSharedReq MSHR hits
system.l2.ReadSharedReq_mshr_hits::total            3                       # number of ReadSharedReq MSHR hits
system.l2.ReadSharedReq_mshr_misses::.cpu.data         5336                       # number of ReadSharedReq MSHR misses
system.l2.ReadSharedReq_mshr_misses::total         5336                       # number of ReadSharedReq MSHR misses
system.l2.ReadSharedReq_mshr_miss_latency::.cpu.data    560112000                       # number of ReadSharedReq MSHR miss cycles
system.l2.ReadSharedReq_mshr_miss_latency::total    560112000                       # number of ReadSharedReq MSHR miss cycles
system.l2.ReadSharedReq_mshr_miss_rate::.cpu.data     0.520433                       # mshr miss rate for ReadSharedReq accesses
system.l2.ReadSharedReq_mshr_miss_rate::total     0.520433                       # mshr miss rate for ReadSharedReq accesses
system.l2.ReadSharedReq_avg_mshr_miss_latency::.cpu.data 104968.515742                       # average ReadSharedReq mshr miss latency
system.l2.ReadSharedReq_avg_mshr_miss_latency::total 104968.515742                       # average ReadSharedReq mshr miss latency
system.l2.power_state.pwrStateResidencyTicks::UNDEFINED 107192581000                       # Cumulative time (in ticks) in various power states
system.l2.tags.tagsinuse                  2009.238238                       # Cycle average of tags in use
system.l2.tags.total_refs                       39119                       # Total number of references to valid blocks.
system.l2.tags.sampled_refs                     15111                       # Sample count of references to valid blocks.
system.l2.tags.avg_refs                      2.588776                       # Average number of references to valid blocks.
system.l2.tags.warmup_cycle                    102000                       # Cycle when the warmup percentage was hit.
system.l2.tags.occ_blocks::.writebacks       6.830992                       # Average occupied blocks per requestor
system.l2.tags.occ_blocks::.cpu.inst        10.208640                       # Average occupied blocks per requestor
system.l2.tags.occ_blocks::.cpu.data      1992.198606                       # Average occupied blocks per requestor
system.l2.tags.occ_percent::.writebacks      0.003335                       # Average percentage of cache occupancy
system.l2.tags.occ_percent::.cpu.inst        0.004985                       # Average percentage of cache occupancy
system.l2.tags.occ_percent::.cpu.data        0.972753                       # Average percentage of cache occupancy
system.l2.tags.occ_percent::total            0.981073                       # Average percentage of cache occupancy
system.l2.tags.occ_task_id_blocks::1024          2048                       # Occupied blocks per task id
system.l2.tags.age_task_id_blocks_1024::0            1                       # Occupied blocks per task id
system.l2.tags.age_task_id_blocks_1024::1            5                       # Occupied blocks per task id
system.l2.tags.age_task_id_blocks_1024::2           72                       # Occupied blocks per task id
system.l2.tags.age_task_id_blocks_1024::3         1030                       # Occupied blocks per task id
system.l2.tags.age_task_id_blocks_1024::4          940                       # Occupied blocks per task id
system.l2.tags.occ_task_id_percent::1024            1                       # Percentage of cache occupancy per task id
system.l2.tags.tag_accesses                    328679                       # Number of tag accesses
system.l2.tags.data_accesses                   328679                       # Number of data accesses
system.l2.tags.power_state.pwrStateResidencyTicks::UNDEFINED 107192581000                       # Cumulative time (in ticks) in various power states
system.mem_ctrls.avgPriority_.writebacks::samples     50616.00                       # Average QoS priority value for accepted requests
system.mem_ctrls.avgPriority_.cpu.inst::samples       908.00                       # Average QoS priority value for accepted requests
system.mem_ctrls.avgPriority_.cpu.data::samples     59283.00                       # Average QoS priority value for accepted requests
system.mem_ctrls.priorityMinLatency      0.000000018750                       # per QoS priority minimum request to response latency (s)
system.mem_ctrls.priorityMaxLatency      0.000828486500                       # per QoS priority maximum request to response latency (s)
system.mem_ctrls.numReadWriteTurnArounds         2515                       # Number of turnarounds from READ to WRITE
system.mem_ctrls.numWriteReadTurnArounds         2515                       # Number of turnarounds from WRITE to READ
system.mem_ctrls.numStayReadState              115024                       # Number of times bus staying in READ state
system.mem_ctrls.numStayWriteState              48128                       # Number of times bus staying in WRITE state
system.mem_ctrls.readReqs                       15059                       # Number of read requests accepted
system.mem_ctrls.writeReqs                      12654                       # Number of write requests accepted
system.mem_ctrls.readBursts                     60236                       # Number of controller read bursts, including those serviced by the write queue
system.mem_ctrls.writeBursts                    50616                       # Number of controller write bursts, including those merged in the write queue
system.mem_ctrls.servicedByWrQ                     45                       # Number of controller read bursts serviced by the write queue
system.mem_ctrls.mergedWrBursts                     0                       # Number of controller write bursts merged with an existing one
system.mem_ctrls.neitherReadNorWriteReqs            0                       # Number of requests that are neither read nor write
system.mem_ctrls.avgRdQLen                       4.19                       # Average read queue length when enqueuing
system.mem_ctrls.avgWrQLen                      25.84                       # Average write queue length when enqueuing
system.mem_ctrls.numRdRetry                         0                       # Number of times read queue was full causing retry
system.mem_ctrls.numWrRetry                         0                       # Number of times write queue was full causing retry
system.mem_ctrls.readPktSize::0                     0                       # Read request sizes (log2)
system.mem_ctrls.readPktSize::1                     0                       # Read request sizes (log2)
system.mem_ctrls.readPktSize::2                     0                       # Read request sizes (log2)
system.mem_ctrls.readPktSize::3                     0                       # Read request sizes (log2)
system.mem_ctrls.readPktSize::4                     0                       # Read request sizes (log2)
system.mem_ctrls.readPktSize::5                     0                       # Read request sizes (log2)
system.mem_ctrls.readPktSize::6                 60236                       # Read request sizes (log2)
system.mem_ctrls.readPktSize::7                     0                       # Read request sizes (log2)
system.mem_ctrls.readPktSize::8                     0                       # Read request sizes (log2)
system.mem_ctrls.writePktSize::0                    0                       # Write request sizes (log2)
system.mem_ctrls.writePktSize::1                    0                       # Write request sizes (log2)
system.mem_ctrls.writePktSize::2                    0                       # Write request sizes (log2)
system.mem_ctrls.writePktSize::3                    0                       # Write request sizes (log2)
system.mem_ctrls.writePktSize::4                    0                       # Write request sizes (log2)
system.mem_ctrls.writePktSize::5                    0                       # Write request sizes (log2)
system.mem_ctrls.writePktSize::6                50616                       # Write request sizes (log2)
system.mem_ctrls.writePktSize::7                    0                       # Write request sizes (log2)
system.mem_ctrls.writePktSize::8                    0                       # Write request sizes (log2)
system.mem_ctrls.rdQLenPdf::0                   14357                       # What read queue length does an incoming req see
system.mem_ctrls.rdQLenPdf::1                   14355                       # What read queue length does an incoming req see
system.mem_ctrls.rdQLenPdf::2                   14658                       # What read queue length does an incoming req see
system.mem_ctrls.rdQLenPdf::3                   14681                       # What read queue length does an incoming req see
system.mem_ctrls.rdQLenPdf::4                     689                       # What read queue length does an incoming req see
system.mem_ctrls.rdQLenPdf::5                     688                       # What read queue length does an incoming req see
system.mem_ctrls.rdQLenPdf::6                     385                       # What read queue length does an incoming req see
system.mem_ctrls.rdQLenPdf::7                     364                       # What read queue length does an incoming req see
system.mem_ctrls.rdQLenPdf::8                       4                       # What read queue length does an incoming req see
system.mem_ctrls.rdQLenPdf::9                       4                       # What read queue length does an incoming req see
system.mem_ctrls.rdQLenPdf::10                      4                       # What read queue length does an incoming req see
[...]
system.mem_ctrls.dram.bw_inst_read::total       542127                       # Instruction read bandwidth from this memory (bytes/s)
system.mem_ctrls.dram.bw_write::.writebacks     30220599                       # Write bandwidth from this memory (bytes/s)
system.mem_ctrls.dram.bw_write::total        30220599                       # Write bandwidth from this memory (bytes/s)
system.mem_ctrls.dram.bw_total::.writebacks     30220599                       # Total bandwidth to/from this memory (bytes/s)
system.mem_ctrls.dram.bw_total::.cpu.inst       542127                       # Total bandwidth to/from this memory (bytes/s)
system.mem_ctrls.dram.bw_total::.cpu.data     35422153                       # Total bandwidth to/from this memory (bytes/s)
system.mem_ctrls.dram.bw_total::total        66184879                       # Total bandwidth to/from this memory (bytes/s)
system.mem_ctrls.dram.readBursts                60191                       # Number of DRAM read bursts
system.mem_ctrls.dram.writeBursts               50601                       # Number of DRAM write bursts
system.mem_ctrls.dram.perBankRdBursts::0         3620                       # Per bank write bursts
system.mem_ctrls.dram.perBankRdBursts::1         3684                       # Per bank write bursts
system.mem_ctrls.dram.perBankRdBursts::2         3693                       # Per bank write bursts
system.mem_ctrls.dram.perBankRdBursts::3         4068                       # Per bank write bursts
system.mem_ctrls.dram.perBankRdBursts::4         3712                       # Per bank write bursts
system.mem_ctrls.dram.perBankRdBursts::5         3869                       # Per bank write bursts
system.mem_ctrls.dram.perBankRdBursts::6         4120                       # Per bank write bursts
system.mem_ctrls.dram.perBankRdBursts::7         3720                       # Per bank write bursts
system.mem_ctrls.dram.perBankRdBursts::8         3892                       # Per bank write bursts
system.mem_ctrls.dram.perBankRdBursts::9         3932                       # Per bank write bursts
system.mem_ctrls.dram.perBankRdBursts::10         3845                       # Per bank write bursts
system.mem_ctrls.dram.perBankRdBursts::11         3860                       # Per bank write bursts
system.mem_ctrls.dram.perBankRdBursts::12         3444                       # Per bank write bursts
system.mem_ctrls.dram.perBankRdBursts::13         3644                       # Per bank write bursts
system.mem_ctrls.dram.perBankRdBursts::14         3632                       # Per bank write bursts
system.mem_ctrls.dram.perBankRdBursts::15         3456                       # Per bank write bursts
system.mem_ctrls.dram.perBankWrBursts::0         3044                       # Per bank write bursts
system.mem_ctrls.dram.perBankWrBursts::1         3172                       # Per bank write bursts
system.mem_ctrls.dram.perBankWrBursts::2         3020                       # Per bank write bursts
system.mem_ctrls.dram.perBankWrBursts::3         3313                       # Per bank write bursts
system.mem_ctrls.dram.perBankWrBursts::4         3076                       # Per bank write bursts
system.mem_ctrls.dram.perBankWrBursts::5         3236                       # Per bank write bursts
system.mem_ctrls.dram.perBankWrBursts::6         3504                       # Per bank write bursts
system.mem_ctrls.dram.perBankWrBursts::7         3056                       # Per bank write bursts
system.mem_ctrls.dram.perBankWrBursts::8         3264                       # Per bank write bursts
system.mem_ctrls.dram.perBankWrBursts::9         3308                       # Per bank write bursts
system.mem_ctrls.dram.perBankWrBursts::10         3188                       # Per bank write bursts
system.mem_ctrls.dram.perBankWrBursts::11         3284                       # Per bank write bursts
system.mem_ctrls.dram.perBankWrBursts::12         2928                       # Per bank write bursts
system.mem_ctrls.dram.perBankWrBursts::13         3136                       # Per bank write bursts
system.mem_ctrls.dram.perBankWrBursts::14         3148                       # Per bank write bursts
system.mem_ctrls.dram.perBankWrBursts::15         2924                       # Per bank write bursts
system.mem_ctrls.dram.totQLat              1538763750                       # Total ticks spent queuing
system.mem_ctrls.dram.totBusLat             300955000                       # Total ticks spent in databus transfers
system.mem_ctrls.dram.totMemAccLat         2667345000                       # Total ticks spent from burst creation until serviced by the DRAM
system.mem_ctrls.dram.avgQLat                25564.68                       # Average queueing delay per DRAM burst
system.mem_ctrls.dram.avgBusLat               5000.00                       # Average bus latency per DRAM burst
system.mem_ctrls.dram.avgMemAccLat           44314.68                       # Average memory access latency per DRAM burst
system.mem_ctrls.dram.readRowHits               46758                       # Number of row buffer hits during reads
system.mem_ctrls.dram.writeRowHits              39616                       # Number of row buffer hits during writes
system.mem_ctrls.dram.readRowHitRate            77.68                       # Row buffer hit rate for reads
system.mem_ctrls.dram.writeRowHitRate           78.29                       # Row buffer hit rate for writes
system.mem_ctrls.dram.bytesPerActivate::samples        24416                       # Bytes accessed per row activation
system.mem_ctrls.dram.bytesPerActivate::mean   290.398427                       # Bytes accessed per row activation
system.mem_ctrls.dram.bytesPerActivate::gmean   260.788966                       # Bytes accessed per row activation
system.mem_ctrls.dram.bytesPerActivate::stdev   151.072167                       # Bytes accessed per row activation
system.mem_ctrls.dram.bytesPerActivate::0-127         1462      5.99%      5.99% # Bytes accessed per row activation
system.mem_ctrls.dram.bytesPerActivate::128-255         1242      5.09%     11.07% # Bytes accessed per row activation
system.mem_ctrls.dram.bytesPerActivate::256-383        18344     75.13%     86.21% # Bytes accessed per row activation
system.mem_ctrls.dram.bytesPerActivate::384-511          352      1.44%     87.65% # Bytes accessed per row activation
system.mem_ctrls.dram.bytesPerActivate::512-639         2036      8.34%     95.99% # Bytes accessed per row activation
system.mem_ctrls.dram.bytesPerActivate::640-767          141      0.58%     96.56% # Bytes accessed per row activation
system.mem_ctrls.dram.bytesPerActivate::768-895          430      1.76%     98.32% # Bytes accessed per row activation
system.mem_ctrls.dram.bytesPerActivate::896-1023           64      0.26%     98.59% # Bytes accessed per row activation
system.mem_ctrls.dram.bytesPerActivate::1024-1151          345      1.41%    100.00% # Bytes accessed per row activation
system.mem_ctrls.dram.bytesPerActivate::total        24416                       # Bytes accessed per row activation
system.mem_ctrls.dram.bytesRead               3852224                       # Total number of bytes read from DRAM
system.mem_ctrls.dram.bytesWritten            3238464                       # Total number of bytes written to DRAM
system.mem_ctrls.dram.avgRdBW               35.937412                       # Average DRAM read bandwidth in MiBytes/s
system.mem_ctrls.dram.avgWrBW               30.211643                       # Average DRAM write bandwidth in MiBytes/s
system.mem_ctrls.dram.peakBW                 12800.00                       # Theoretical peak bandwidth in MiByte/s
system.mem_ctrls.dram.busUtil                    0.52                       # Data bus utilization in percentage
system.mem_ctrls.dram.busUtilRead                0.28                       # Data bus utilization in percentage for reads
system.mem_ctrls.dram.busUtilWrite               0.24                       # Data bus utilization in percentage for writes
system.mem_ctrls.dram.pageHitRate               77.96                       # Row buffer hit rate, read and write combined
system.mem_ctrls.dram.power_state.pwrStateResidencyTicks::UNDEFINED 107192581000                       # Cumulative time (in ticks) in various power states
system.mem_ctrls.dram.rank0.actEnergy        88378920                       # Energy for activate commands per rank (pJ)
system.mem_ctrls.dram.rank0.preEnergy        46966920                       # Energy for precharge commands per rank (pJ)
system.mem_ctrls.dram.rank0.readEnergy      217670040                       # Energy for read commands per rank (pJ)
system.mem_ctrls.dram.rank0.writeEnergy     132697620                       # Energy for write commands per rank (pJ)
system.mem_ctrls.dram.rank0.refreshEnergy 8461134240.000001                       # Energy for refresh commands per rank (pJ)
system.mem_ctrls.dram.rank0.actBackEnergy  13102659540                       # Energy for active background per rank (pJ)
system.mem_ctrls.dram.rank0.preBackEnergy  30128132640                       # Energy for precharge background per rank (pJ)
system.mem_ctrls.dram.rank0.actPowerDownEnergy            0                       # Energy for active power-down per rank (pJ)
system.mem_ctrls.dram.rank0.prePowerDownEnergy            0                       # Energy for precharge power-down per rank (pJ)
system.mem_ctrls.dram.rank0.selfRefreshEnergy            0                       # Energy for self refresh per rank (pJ)
system.mem_ctrls.dram.rank0.totalEnergy   52177639920                       # Total energy per rank (pJ)
system.mem_ctrls.dram.rank0.averagePower   486.765403                       # Core power per rank (mW)
system.mem_ctrls.dram.rank0.totalIdleTime            0                       # Total Idle time Per DRAM Rank
system.mem_ctrls.dram.rank0.pwrStateTime::IDLE  78179485000                       # Time in different power states
system.mem_ctrls.dram.rank0.pwrStateTime::REF   3579160000                       # Time in different power states
system.mem_ctrls.dram.rank0.pwrStateTime::SREF            0                       # Time in different power states
system.mem_ctrls.dram.rank0.pwrStateTime::PRE_PDN            0                       # Time in different power states
system.mem_ctrls.dram.rank0.pwrStateTime::ACT  25433936000                       # Time in different power states
system.mem_ctrls.dram.rank0.pwrStateTime::ACT_PDN            0                       # Time in different power states
system.mem_ctrls.dram.rank1.actEnergy        85965600                       # Energy for activate commands per rank (pJ)
system.mem_ctrls.dram.rank1.preEnergy        45691800                       # Energy for precharge commands per rank (pJ)
system.mem_ctrls.dram.rank1.readEnergy      212093700                       # Energy for read commands per rank (pJ)
system.mem_ctrls.dram.rank1.writeEnergy     131439600                       # Energy for write commands per rank (pJ)
system.mem_ctrls.dram.rank1.refreshEnergy 8461134240.000001                       # Energy for refresh commands per rank (pJ)
system.mem_ctrls.dram.rank1.actBackEnergy  12899915670                       # Energy for active background per rank (pJ)
system.mem_ctrls.dram.rank1.preBackEnergy  30298864320                       # Energy for precharge background per rank (pJ)
system.mem_ctrls.dram.rank1.actPowerDownEnergy            0                       # Energy for active power-down per rank (pJ)
system.mem_ctrls.dram.rank1.prePowerDownEnergy            0                       # Energy for precharge power-down per rank (pJ)
system.mem_ctrls.dram.rank1.selfRefreshEnergy            0                       # Energy for self refresh per rank (pJ)
system.mem_ctrls.dram.rank1.totalEnergy   52135104930                       # Total energy per rank (pJ)
system.mem_ctrls.dram.rank1.averagePower   486.368594                       # Core power per rank (mW)
system.mem_ctrls.dram.rank1.totalIdleTime            0                       # Total Idle time Per DRAM Rank
system.mem_ctrls.dram.rank1.pwrStateTime::IDLE  78625182250                       # Time in different power states
system.mem_ctrls.dram.rank1.pwrStateTime::REF   3579160000                       # Time in different power states
system.mem_ctrls.dram.rank1.pwrStateTime::SREF            0                       # Time in different power states
system.mem_ctrls.dram.rank1.pwrStateTime::PRE_PDN            0                       # Time in different power states
system.mem_ctrls.dram.rank1.pwrStateTime::ACT  24988238750                       # Time in different power states
system.mem_ctrls.dram.rank1.pwrStateTime::ACT_PDN            0                       # Time in different power states
system.mem_ctrls.power_state.pwrStateResidencyTicks::UNDEFINED 107192581000                       # Cumulative time (in ticks) in various power states
system.membus.trans_dist::ReadResp               5563                       # Transaction distribution
system.membus.trans_dist::WritebackDirty        12654                       # Transaction distribution
system.membus.trans_dist::CleanEvict               91                       # Transaction distribution
system.membus.trans_dist::ReadExReq              9496                       # Transaction distribution
system.membus.trans_dist::ReadExResp             9496                       # Transaction distribution
system.membus.trans_dist::ReadSharedReq          5563                       # Transaction distribution
system.membus.pkt_count_system.l2.mem_side_port::system.mem_ctrls.port        42863                       # Packet count per connected requestor and responder (bytes)
system.membus.pkt_count::total                  42863                       # Packet count per connected requestor and responder (bytes)
system.membus.pkt_size_system.l2.mem_side_port::system.mem_ctrls.port      7094528                       # Cumulative packet size per connected requestor and responder (bytes)
system.membus.pkt_size::total                 7094528                       # Cumulative packet size per connected requestor and responder (bytes)
system.membus.snoops                                0                       # Total snoops (count)
system.membus.snoopTraffic                          0                       # Total snoop traffic (bytes)
system.membus.snoop_fanout::samples             15059                       # Request fanout histogram
system.membus.snoop_fanout::mean                    0                       # Request fanout histogram
system.membus.snoop_fanout::stdev                   0                       # Request fanout histogram
system.membus.snoop_fanout::underflows              0      0.00%      0.00% # Request fanout histogram
system.membus.snoop_fanout::0                   15059    100.00%    100.00% # Request fanout histogram
system.membus.snoop_fanout::1                       0      0.00%    100.00% # Request fanout histogram
system.membus.snoop_fanout::overflows               0      0.00%    100.00% # Request fanout histogram
system.membus.snoop_fanout::min_value               0                       # Request fanout histogram
system.membus.snoop_fanout::max_value               0                       # Request fanout histogram
system.membus.snoop_fanout::total               15059                       # Request fanout histogram
system.membus.power_state.pwrStateResidencyTicks::UNDEFINED 107192581000                       # Cumulative time (in ticks) in various power states
system.membus.reqLayer0.occupancy           230268000                       # Layer occupancy (ticks)
system.membus.reqLayer0.utilization               0.2                       # Layer utilization (%)
system.membus.respLayer1.occupancy          263141750                       # Layer occupancy (ticks)
system.membus.respLayer1.utilization              0.2                       # Layer utilization (%)
system.tol2bus.trans_dist::ReadResp             10485                       # Transaction distribution
system.tol2bus.trans_dist::WritebackDirty        31322                       # Transaction distribution
system.tol2bus.trans_dist::CleanEvict             978                       # Transaction distribution
system.tol2bus.trans_dist::ReadExReq             9496                       # Transaction distribution
system.tol2bus.trans_dist::ReadExResp            9496                       # Transaction distribution
system.tol2bus.trans_dist::ReadCleanReq           232                       # Transaction distribution
system.tol2bus.trans_dist::ReadSharedReq        10253                       # Transaction distribution
system.tol2bus.pkt_count_system.cpu.icache.mem_side_port::system.l2.cpu_side_port          464                       # Packet count per connected requestor and responder (bytes)
system.tol2bus.pkt_count_system.cpu.dcache.mem_side_port::system.l2.cpu_side_port        58735                       # Packet count per connected requestor and responder (bytes)
system.tol2bus.pkt_count::total                 59199                       # Packet count per connected requestor and responder (bytes)
system.tol2bus.pkt_size_system.cpu.icache.mem_side_port::system.l2.cpu_side_port        59392                       # Cumulative packet size per connected requestor and responder (bytes)
system.tol2bus.pkt_size_system.cpu.dcache.mem_side_port::system.l2.cpu_side_port      9834752                       # Cumulative packet size per connected requestor and responder (bytes)
system.tol2bus.pkt_size::total                9894144                       # Cumulative packet size per connected requestor and responder (bytes)
system.tol2bus.snoops                           13063                       # Total snoops (count)
system.tol2bus.snoopTraffic                   3239424                       # Total snoop traffic (bytes)
system.tol2bus.snoop_fanout::samples            33044                       # Request fanout histogram
system.tol2bus.snoop_fanout::mean            0.012831                       # Request fanout histogram
system.tol2bus.snoop_fanout::stdev           0.113885                       # Request fanout histogram
system.tol2bus.snoop_fanout::underflows             0      0.00%      0.00% # Request fanout histogram
system.tol2bus.snoop_fanout::0                  32625     98.73%     98.73% # Request fanout histogram
system.tol2bus.snoop_fanout::1                    414      1.25%     99.98% # Request fanout histogram
system.tol2bus.snoop_fanout::2                      5      0.02%    100.00% # Request fanout histogram
system.tol2bus.snoop_fanout::overflows              0      0.00%    100.00% # Request fanout histogram
system.tol2bus.snoop_fanout::min_value              0                       # Request fanout histogram
system.tol2bus.snoop_fanout::max_value              2                       # Request fanout histogram
system.tol2bus.snoop_fanout::total              33044                       # Request fanout histogram
system.tol2bus.power_state.pwrStateResidencyTicks::UNDEFINED 107192581000                       # Cumulative time (in ticks) in various power states
system.tol2bus.reqLayer0.occupancy          188562000                       # Layer occupancy (ticks)
system.tol2bus.reqLayer0.utilization              0.2                       # Layer utilization (%)
system.tol2bus.respLayer0.occupancy           2088000                       # Layer occupancy (ticks)
system.tol2bus.respLayer0.utilization             0.0                       # Layer utilization (%)
system.tol2bus.respLayer1.occupancy         177743997                       # Layer occupancy (ticks)
system.tol2bus.respLayer1.utilization             0.2                       # Layer utilization (%)
system.voltage_domain.voltage                       1                       # Voltage in Volts

---------- End Simulation Statistics   ----------
