
**** 05/26/21 17:33:55 ****** PSpice Lite (October 2012) ****** ID# 10813 ****

 ** Profile: "SCHEMATIC1-test"  [ C:\Users\Sokratis Koseoglou\Desktop\8837_electronics3-PSpiceFiles\SCHEMATIC1\test.sim ] 


 ****     CIRCUIT DESCRIPTION


******************************************************************************




** Creating circuit file "test.cir" 
** WARNING: THIS AUTOMATICALLY GENERATED FILE MAY BE OVERWRITTEN BY SUBSEQUENT SIMULATIONS

*Libraries: 
* Profile Libraries :
* Local Libraries :
* From [PSPICE NETLIST] section of C:\SPB_Data\cdssetup\OrCAD_PSpice/16.6.0/PSpice.ini file:
.lib "nomd.lib" 

*Analysis directives: 
.AC DEC 500 1 100mega
.OPTIONS ADVCONV
.PROBE64 V(alias(*)) I(alias(*)) W(alias(*)) D(alias(*)) NOISE(alias(*)) 
.INC "..\SCHEMATIC1.net" 



**** INCLUDING SCHEMATIC1.net ****
* source 8837_ELECTRONICS3
V_Vss         0 N55126 1.911Vdc
M_M3         N54662 N54662 N54714 N54714 pfet  
+ L=1u  
+ W=1u         
C_Cc         N54606 N54756  0.5214p  TC=0,0 
M_M2         N54606 N55276 N54590 N54590 nfet  
+ L=1u  
+ W=1u         
M_M5         N54590 N54550 N55126 N55126 nfet  
+ L=1u  
+ W=1u         
M_M4         N54606 N54662 N54714 N54714 pfet  
+ L=1u  
+ W=1u         
M_M7         N54756 N54550 N55126 N55126 nfet  
+ L=1u  
+ W=6u         
M_M6         N54756 N54606 N54714 N54714 pfet  
+ L=1u  
+ W=12u         
M_M1         N54662 0 N54590 N54590 nfet  
+ L=1u  
+ W=1u         
C_CL         0 N54756  2.37p  TC=0,0 
V_Vdd         N54714 0 1.911Vdc
M_M8         N54550 N54550 N55126 N55126 nfet  
+ L=1u  
+ W=1u         
I_Iref         N54714 N54550 DC 9.5781uAdc  
V_V3         0 N55276 DC 0Vdc AC 1Vac 

**** RESUMING test.cir ****
.END

INFO(ORPSIM-15423): Unable to find index file nomd.ind for library file nomd.lib.

INFO(ORPSIM-15422): Making new index file nomd.ind for library file nomd.lib.

Index has 4119 entries from 27 file(s).

ERROR(ORPSIM-15113): Model pfet used by M_M3 is undefined

ERROR(ORPSIM-15113): Model nfet used by M_M2 is undefined

ERROR(ORPSIM-15113): Model nfet used by M_M5 is undefined

ERROR(ORPSIM-15113): Model pfet used by M_M4 is undefined

ERROR(ORPSIM-15113): Model nfet used by M_M7 is undefined

ERROR(ORPSIM-15113): Model pfet used by M_M6 is undefined

ERROR(ORPSIM-15113): Model nfet used by M_M1 is undefined

ERROR(ORPSIM-15113): Model nfet used by M_M8 is undefined
