
---------- Begin Simulation Statistics ----------
final_tick                               109102286000                       # Number of ticks from beginning of simulation (restored from checkpoints and never reset)
host_inst_rate                                 277290                       # Simulator instruction rate (inst/s)
host_mem_usage                                 719812                       # Number of bytes of host memory used
host_op_rate                                   302633                       # Simulator op (including micro ops) rate (op/s)
host_seconds                                   360.63                       # Real time elapsed on the host
host_tick_rate                              302529809                       # Simulator tick rate (ticks/s)
sim_freq                                 1000000000000                       # Frequency of simulated ticks
sim_insts                                   100000001                       # Number of instructions simulated
sim_ops                                     109139393                       # Number of ops (including micro ops) simulated
sim_seconds                                  0.109102                       # Number of seconds simulated
sim_ticks                                109102286000                       # Number of ticks simulated
system.cpu.committedInsts                   100000001                       # Number of instructions committed
system.cpu.committedOps                     109139393                       # Number of ops (including micro ops) committed
system.cpu.cpi                               1.091023                       # CPI: cycles per instruction
system.cpu.discardedOps                        431024                       # Number of ops (including micro ops) which were discarded before commit
system.cpu.idleCycles                         2439463                       # Total number of cycles that the object has spent stopped
system.cpu.ipc                               0.916571                       # IPC: instructions per cycle
system.cpu.numCycles                        109102286                       # number of cpu cycles simulated
system.cpu.numFetchSuspends                         0                       # Number of times Execute suspended instruction fetching
system.cpu.numWorkItemsCompleted                    0                       # number of work items this cpu completed
system.cpu.numWorkItemsStarted                      0                       # number of work items this cpu started
system.cpu.op_class_0::No_OpClass                   0      0.00%      0.00% # Class of committed instruction
system.cpu.op_class_0::IntAlu                72222733     66.17%     66.17% # Class of committed instruction
system.cpu.op_class_0::IntMult                 547028      0.50%     66.68% # Class of committed instruction
system.cpu.op_class_0::IntDiv                       0      0.00%     66.68% # Class of committed instruction
system.cpu.op_class_0::FloatAdd                     0      0.00%     66.68% # Class of committed instruction
system.cpu.op_class_0::FloatCmp                     0      0.00%     66.68% # Class of committed instruction
system.cpu.op_class_0::FloatCvt                     0      0.00%     66.68% # Class of committed instruction
system.cpu.op_class_0::FloatMult                    0      0.00%     66.68% # Class of committed instruction
system.cpu.op_class_0::FloatMultAcc                 0      0.00%     66.68% # Class of committed instruction
system.cpu.op_class_0::FloatDiv                     0      0.00%     66.68% # Class of committed instruction
system.cpu.op_class_0::FloatMisc                    0      0.00%     66.68% # Class of committed instruction
system.cpu.op_class_0::FloatSqrt                    0      0.00%     66.68% # Class of committed instruction
system.cpu.op_class_0::SimdAdd                 231656      0.21%     66.89% # Class of committed instruction
system.cpu.op_class_0::SimdAddAcc                   0      0.00%     66.89% # Class of committed instruction
system.cpu.op_class_0::SimdAlu                 148482      0.14%     67.02% # Class of committed instruction
system.cpu.op_class_0::SimdCmp                 115828      0.11%     67.13% # Class of committed instruction
system.cpu.op_class_0::SimdCvt                      0      0.00%     67.13% # Class of committed instruction
system.cpu.op_class_0::SimdMisc                 42808      0.04%     67.17% # Class of committed instruction
system.cpu.op_class_0::SimdMult                     0      0.00%     67.17% # Class of committed instruction
system.cpu.op_class_0::SimdMultAcc                  0      0.00%     67.17% # Class of committed instruction
system.cpu.op_class_0::SimdShift                    0      0.00%     67.17% # Class of committed instruction
system.cpu.op_class_0::SimdShiftAcc                 0      0.00%     67.17% # Class of committed instruction
system.cpu.op_class_0::SimdDiv                      0      0.00%     67.17% # Class of committed instruction
system.cpu.op_class_0::SimdSqrt                     0      0.00%     67.17% # Class of committed instruction
system.cpu.op_class_0::SimdFloatAdd                 0      0.00%     67.17% # Class of committed instruction
system.cpu.op_class_0::SimdFloatAlu                 0      0.00%     67.17% # Class of committed instruction
system.cpu.op_class_0::SimdFloatCmp                 0      0.00%     67.17% # Class of committed instruction
system.cpu.op_class_0::SimdFloatCvt                 0      0.00%     67.17% # Class of committed instruction
system.cpu.op_class_0::SimdFloatDiv                 0      0.00%     67.17% # Class of committed instruction
system.cpu.op_class_0::SimdFloatMisc           159857      0.15%     67.32% # Class of committed instruction
system.cpu.op_class_0::SimdFloatMult                0      0.00%     67.32% # Class of committed instruction
system.cpu.op_class_0::SimdFloatMultAcc             0      0.00%     67.32% # Class of committed instruction
system.cpu.op_class_0::SimdFloatSqrt                0      0.00%     67.32% # Class of committed instruction
system.cpu.op_class_0::SimdReduceAdd                0      0.00%     67.32% # Class of committed instruction
system.cpu.op_class_0::SimdReduceAlu                0      0.00%     67.32% # Class of committed instruction
system.cpu.op_class_0::SimdReduceCmp                0      0.00%     67.32% # Class of committed instruction
system.cpu.op_class_0::SimdFloatReduceAdd            0      0.00%     67.32% # Class of committed instruction
system.cpu.op_class_0::SimdFloatReduceCmp            0      0.00%     67.32% # Class of committed instruction
system.cpu.op_class_0::SimdAes                      0      0.00%     67.32% # Class of committed instruction
system.cpu.op_class_0::SimdAesMix                   0      0.00%     67.32% # Class of committed instruction
system.cpu.op_class_0::SimdSha1Hash                 0      0.00%     67.32% # Class of committed instruction
system.cpu.op_class_0::SimdSha1Hash2                0      0.00%     67.32% # Class of committed instruction
system.cpu.op_class_0::SimdSha256Hash               0      0.00%     67.32% # Class of committed instruction
system.cpu.op_class_0::SimdSha256Hash2              0      0.00%     67.32% # Class of committed instruction
system.cpu.op_class_0::SimdShaSigma2                0      0.00%     67.32% # Class of committed instruction
system.cpu.op_class_0::SimdShaSigma3                0      0.00%     67.32% # Class of committed instruction
system.cpu.op_class_0::SimdPredAlu                  0      0.00%     67.32% # Class of committed instruction
system.cpu.op_class_0::MemRead               20932683     19.18%     86.50% # Class of committed instruction
system.cpu.op_class_0::MemWrite              14738318     13.50%    100.00% # Class of committed instruction
system.cpu.op_class_0::FloatMemRead                 0      0.00%    100.00% # Class of committed instruction
system.cpu.op_class_0::FloatMemWrite                0      0.00%    100.00% # Class of committed instruction
system.cpu.op_class_0::IprAccess                    0      0.00%    100.00% # Class of committed instruction
system.cpu.op_class_0::InstPrefetch                 0      0.00%    100.00% # Class of committed instruction
system.cpu.op_class_0::total                109139393                       # Class of committed instruction
system.cpu.tickCycles                       106662823                       # Number of cycles that the object actually ticked
system.cpu.workload.numSyscalls                    85                       # Number of system calls
system.membus.snoop_filter.hit_multi_requests            0                       # Number of requests hitting in the snoop filter with multiple (>1) holders of the requested data.
system.membus.snoop_filter.hit_multi_snoops            0                       # Number of snoops hitting in the snoop filter with multiple (>1) holders of the requested data.
system.membus.snoop_filter.hit_single_requests         5528                       # Number of requests hitting in the snoop filter with a single holder of the requested data.
system.membus.snoop_filter.hit_single_snoops            0                       # Number of snoops hitting in the snoop filter with a single holder of the requested data.
system.membus.snoop_filter.tot_requests         44362                       # Total number of requests made to the snoop filter.
system.membus.snoop_filter.tot_snoops               0                       # Total number of snoops made to the snoop filter.
system.tol2bus.snoop_filter.hit_multi_requests           16                       # Number of requests hitting in the snoop filter with multiple (>1) holders of the requested data.
system.tol2bus.snoop_filter.hit_multi_snoops            2                       # Number of snoops hitting in the snoop filter with multiple (>1) holders of the requested data.
system.tol2bus.snoop_filter.hit_single_requests        47083                       # Number of requests hitting in the snoop filter with a single holder of the requested data.
system.tol2bus.snoop_filter.hit_single_snoops          568                       # Number of snoops hitting in the snoop filter with a single holder of the requested data.
system.tol2bus.snoop_filter.tot_requests        96725                       # Total number of requests made to the snoop filter.
system.tol2bus.snoop_filter.tot_snoops            570                       # Total number of snoops made to the snoop filter.
system.clk_domain.clock                          1000                       # Clock period in ticks
system.cpu.branchPred.lookups                19659345                       # Number of BP lookups
system.cpu.branchPred.condPredicted          15818943                       # Number of conditional branches predicted
system.cpu.branchPred.condIncorrect             88864                       # Number of conditional branches incorrect
system.cpu.branchPred.BTBLookups              8076121                       # Number of BTB lookups
system.cpu.branchPred.BTBHits                 8062867                       # Number of BTB hits
system.cpu.branchPred.BTBHitPct             99.835887                       # BTB Hit Percentage
system.cpu.branchPred.RASUsed                 1050578                       # Number of times the RAS was used to get a target.
system.cpu.branchPred.RASIncorrect                468                       # Number of incorrect RAS predictions.
system.cpu.branchPred.indirectLookups          422681                       # Number of indirect predictor lookups.
system.cpu.branchPred.indirectHits             287881                       # Number of indirect target hits.
system.cpu.branchPred.indirectMisses           134800                       # Number of indirect misses.
system.cpu.branchPred.indirectMispredicted          993                       # Number of mispredicted indirect branches.
system.cpu.dcache.demand_hits::.cpu.data     35103376                       # number of demand (read+write) hits
system.cpu.dcache.demand_hits::total         35103376                       # number of demand (read+write) hits
system.cpu.dcache.overall_hits::.cpu.data     35106472                       # number of overall hits
system.cpu.dcache.overall_hits::total        35106472                       # number of overall hits
system.cpu.dcache.demand_misses::.cpu.data        67057                       # number of demand (read+write) misses
system.cpu.dcache.demand_misses::total          67057                       # number of demand (read+write) misses
system.cpu.dcache.overall_misses::.cpu.data        67090                       # number of overall misses
system.cpu.dcache.overall_misses::total         67090                       # number of overall misses
system.cpu.dcache.demand_miss_latency::.cpu.data   5834498000                       # number of demand (read+write) miss cycles
system.cpu.dcache.demand_miss_latency::total   5834498000                       # number of demand (read+write) miss cycles
system.cpu.dcache.overall_miss_latency::.cpu.data   5834498000                       # number of overall miss cycles
system.cpu.dcache.overall_miss_latency::total   5834498000                       # number of overall miss cycles
system.cpu.dcache.demand_accesses::.cpu.data     35170433                       # number of demand (read+write) accesses
system.cpu.dcache.demand_accesses::total     35170433                       # number of demand (read+write) accesses
system.cpu.dcache.overall_accesses::.cpu.data     35173562                       # number of overall (read+write) accesses
system.cpu.dcache.overall_accesses::total     35173562                       # number of overall (read+write) accesses
system.cpu.dcache.demand_miss_rate::.cpu.data     0.001907                       # miss rate for demand accesses
system.cpu.dcache.demand_miss_rate::total     0.001907                       # miss rate for demand accesses
system.cpu.dcache.overall_miss_rate::.cpu.data     0.001907                       # miss rate for overall accesses
system.cpu.dcache.overall_miss_rate::total     0.001907                       # miss rate for overall accesses
system.cpu.dcache.demand_avg_miss_latency::.cpu.data 87008.037938                       # average overall miss latency
system.cpu.dcache.demand_avg_miss_latency::total 87008.037938                       # average overall miss latency
system.cpu.dcache.overall_avg_miss_latency::.cpu.data 86965.240721                       # average overall miss latency
system.cpu.dcache.overall_avg_miss_latency::total 86965.240721                       # average overall miss latency
system.cpu.dcache.blocked_cycles::no_mshrs            0                       # number of cycles access was blocked
system.cpu.dcache.blocked_cycles::no_targets            0                       # number of cycles access was blocked
system.cpu.dcache.blocked::no_mshrs                 0                       # number of cycles access was blocked
system.cpu.dcache.blocked::no_targets               0                       # number of cycles access was blocked
system.cpu.dcache.avg_blocked_cycles::no_mshrs          nan                       # average number of cycles each access was blocked
system.cpu.dcache.avg_blocked_cycles::no_targets          nan                       # average number of cycles each access was blocked
system.cpu.dcache.writebacks::.writebacks        45674                       # number of writebacks
system.cpu.dcache.writebacks::total             45674                       # number of writebacks
system.cpu.dcache.demand_mshr_hits::.cpu.data        17954                       # number of demand (read+write) MSHR hits
system.cpu.dcache.demand_mshr_hits::total        17954                       # number of demand (read+write) MSHR hits
system.cpu.dcache.overall_mshr_hits::.cpu.data        17954                       # number of overall MSHR hits
system.cpu.dcache.overall_mshr_hits::total        17954                       # number of overall MSHR hits
system.cpu.dcache.demand_mshr_misses::.cpu.data        49103                       # number of demand (read+write) MSHR misses
system.cpu.dcache.demand_mshr_misses::total        49103                       # number of demand (read+write) MSHR misses
system.cpu.dcache.overall_mshr_misses::.cpu.data        49129                       # number of overall MSHR misses
system.cpu.dcache.overall_mshr_misses::total        49129                       # number of overall MSHR misses
system.cpu.dcache.demand_mshr_miss_latency::.cpu.data   4510239000                       # number of demand (read+write) MSHR miss cycles
system.cpu.dcache.demand_mshr_miss_latency::total   4510239000                       # number of demand (read+write) MSHR miss cycles
system.cpu.dcache.overall_mshr_miss_latency::.cpu.data   4512094000                       # number of overall MSHR miss cycles
system.cpu.dcache.overall_mshr_miss_latency::total   4512094000                       # number of overall MSHR miss cycles
system.cpu.dcache.demand_mshr_miss_rate::.cpu.data     0.001396                       # mshr miss rate for demand accesses
system.cpu.dcache.demand_mshr_miss_rate::total     0.001396                       # mshr miss rate for demand accesses
system.cpu.dcache.overall_mshr_miss_rate::.cpu.data     0.001397                       # mshr miss rate for overall accesses
system.cpu.dcache.overall_mshr_miss_rate::total     0.001397                       # mshr miss rate for overall accesses
system.cpu.dcache.demand_avg_mshr_miss_latency::.cpu.data 91852.615930                       # average overall mshr miss latency
system.cpu.dcache.demand_avg_mshr_miss_latency::total 91852.615930                       # average overall mshr miss latency
system.cpu.dcache.overall_avg_mshr_miss_latency::.cpu.data 91841.763521                       # average overall mshr miss latency
system.cpu.dcache.overall_avg_mshr_miss_latency::total 91841.763521                       # average overall mshr miss latency
system.cpu.dcache.replacements                  47081                       # number of replacements
system.cpu.dcache.ReadReq_hits::.cpu.data     20890926                       # number of ReadReq hits
system.cpu.dcache.ReadReq_hits::total        20890926                       # number of ReadReq hits
system.cpu.dcache.ReadReq_misses::.cpu.data        12586                       # number of ReadReq misses
system.cpu.dcache.ReadReq_misses::total         12586                       # number of ReadReq misses
system.cpu.dcache.ReadReq_miss_latency::.cpu.data    373525000                       # number of ReadReq miss cycles
system.cpu.dcache.ReadReq_miss_latency::total    373525000                       # number of ReadReq miss cycles
system.cpu.dcache.ReadReq_accesses::.cpu.data     20903512                       # number of ReadReq accesses(hits+misses)
system.cpu.dcache.ReadReq_accesses::total     20903512                       # number of ReadReq accesses(hits+misses)
system.cpu.dcache.ReadReq_miss_rate::.cpu.data     0.000602                       # miss rate for ReadReq accesses
system.cpu.dcache.ReadReq_miss_rate::total     0.000602                       # miss rate for ReadReq accesses
system.cpu.dcache.ReadReq_avg_miss_latency::.cpu.data 29677.816622                       # average ReadReq miss latency
system.cpu.dcache.ReadReq_avg_miss_latency::total 29677.816622                       # average ReadReq miss latency
system.cpu.dcache.ReadReq_mshr_hits::.cpu.data         1432                       # number of ReadReq MSHR hits
system.cpu.dcache.ReadReq_mshr_hits::total         1432                       # number of ReadReq MSHR hits
system.cpu.dcache.ReadReq_mshr_misses::.cpu.data        11154                       # number of ReadReq MSHR misses
system.cpu.dcache.ReadReq_mshr_misses::total        11154                       # number of ReadReq MSHR misses
system.cpu.dcache.ReadReq_mshr_miss_latency::.cpu.data    300810000                       # number of ReadReq MSHR miss cycles
system.cpu.dcache.ReadReq_mshr_miss_latency::total    300810000                       # number of ReadReq MSHR miss cycles
system.cpu.dcache.ReadReq_mshr_miss_rate::.cpu.data     0.000534                       # mshr miss rate for ReadReq accesses
system.cpu.dcache.ReadReq_mshr_miss_rate::total     0.000534                       # mshr miss rate for ReadReq accesses
system.cpu.dcache.ReadReq_avg_mshr_miss_latency::.cpu.data 26968.800430                       # average ReadReq mshr miss latency
system.cpu.dcache.ReadReq_avg_mshr_miss_latency::total 26968.800430                       # average ReadReq mshr miss latency
system.cpu.dcache.WriteReq_hits::.cpu.data     14212450                       # number of WriteReq hits
system.cpu.dcache.WriteReq_hits::total       14212450                       # number of WriteReq hits
system.cpu.dcache.WriteReq_misses::.cpu.data        54471                       # number of WriteReq misses
system.cpu.dcache.WriteReq_misses::total        54471                       # number of WriteReq misses
system.cpu.dcache.WriteReq_miss_latency::.cpu.data   5460973000                       # number of WriteReq miss cycles
system.cpu.dcache.WriteReq_miss_latency::total   5460973000                       # number of WriteReq miss cycles
system.cpu.dcache.WriteReq_accesses::.cpu.data     14266921                       # number of WriteReq accesses(hits+misses)
system.cpu.dcache.WriteReq_accesses::total     14266921                       # number of WriteReq accesses(hits+misses)
system.cpu.dcache.WriteReq_miss_rate::.cpu.data     0.003818                       # miss rate for WriteReq accesses
system.cpu.dcache.WriteReq_miss_rate::total     0.003818                       # miss rate for WriteReq accesses
system.cpu.dcache.WriteReq_avg_miss_latency::.cpu.data 100254.685980                       # average WriteReq miss latency
system.cpu.dcache.WriteReq_avg_miss_latency::total 100254.685980                       # average WriteReq miss latency
system.cpu.dcache.WriteReq_mshr_hits::.cpu.data        16522                       # number of WriteReq MSHR hits
system.cpu.dcache.WriteReq_mshr_hits::total        16522                       # number of WriteReq MSHR hits
system.cpu.dcache.WriteReq_mshr_misses::.cpu.data        37949                       # number of WriteReq MSHR misses
system.cpu.dcache.WriteReq_mshr_misses::total        37949                       # number of WriteReq MSHR misses
system.cpu.dcache.WriteReq_mshr_miss_latency::.cpu.data   4209429000                       # number of WriteReq MSHR miss cycles
system.cpu.dcache.WriteReq_mshr_miss_latency::total   4209429000                       # number of WriteReq MSHR miss cycles
system.cpu.dcache.WriteReq_mshr_miss_rate::.cpu.data     0.002660                       # mshr miss rate for WriteReq accesses
system.cpu.dcache.WriteReq_mshr_miss_rate::total     0.002660                       # mshr miss rate for WriteReq accesses
system.cpu.dcache.WriteReq_avg_mshr_miss_latency::.cpu.data 110923.318138                       # average WriteReq mshr miss latency
system.cpu.dcache.WriteReq_avg_mshr_miss_latency::total 110923.318138                       # average WriteReq mshr miss latency
system.cpu.dcache.SoftPFReq_hits::.cpu.data         3096                       # number of SoftPFReq hits
system.cpu.dcache.SoftPFReq_hits::total          3096                       # number of SoftPFReq hits
system.cpu.dcache.SoftPFReq_misses::.cpu.data           33                       # number of SoftPFReq misses
system.cpu.dcache.SoftPFReq_misses::total           33                       # number of SoftPFReq misses
system.cpu.dcache.SoftPFReq_accesses::.cpu.data         3129                       # number of SoftPFReq accesses(hits+misses)
system.cpu.dcache.SoftPFReq_accesses::total         3129                       # number of SoftPFReq accesses(hits+misses)
system.cpu.dcache.SoftPFReq_miss_rate::.cpu.data     0.010547                       # miss rate for SoftPFReq accesses
system.cpu.dcache.SoftPFReq_miss_rate::total     0.010547                       # miss rate for SoftPFReq accesses
system.cpu.dcache.SoftPFReq_mshr_misses::.cpu.data           26                       # number of SoftPFReq MSHR misses
system.cpu.dcache.SoftPFReq_mshr_misses::total           26                       # number of SoftPFReq MSHR misses
system.cpu.dcache.SoftPFReq_mshr_miss_latency::.cpu.data      1855000                       # number of SoftPFReq MSHR miss cycles
system.cpu.dcache.SoftPFReq_mshr_miss_latency::total      1855000                       # number of SoftPFReq MSHR miss cycles
system.cpu.dcache.SoftPFReq_mshr_miss_rate::.cpu.data     0.008309                       # mshr miss rate for SoftPFReq accesses
system.cpu.dcache.SoftPFReq_mshr_miss_rate::total     0.008309                       # mshr miss rate for SoftPFReq accesses
system.cpu.dcache.SoftPFReq_avg_mshr_miss_latency::.cpu.data 71346.153846                       # average SoftPFReq mshr miss latency
system.cpu.dcache.SoftPFReq_avg_mshr_miss_latency::total 71346.153846                       # average SoftPFReq mshr miss latency
system.cpu.dcache.LoadLockedReq_hits::.cpu.data        85610                       # number of LoadLockedReq hits
system.cpu.dcache.LoadLockedReq_hits::total        85610                       # number of LoadLockedReq hits
system.cpu.dcache.LoadLockedReq_accesses::.cpu.data        85610                       # number of LoadLockedReq accesses(hits+misses)
system.cpu.dcache.LoadLockedReq_accesses::total        85610                       # number of LoadLockedReq accesses(hits+misses)
system.cpu.dcache.StoreCondReq_hits::.cpu.data        85610                       # number of StoreCondReq hits
system.cpu.dcache.StoreCondReq_hits::total        85610                       # number of StoreCondReq hits
system.cpu.dcache.StoreCondReq_accesses::.cpu.data        85610                       # number of StoreCondReq accesses(hits+misses)
system.cpu.dcache.StoreCondReq_accesses::total        85610                       # number of StoreCondReq accesses(hits+misses)
system.cpu.dcache.power_state.pwrStateResidencyTicks::UNDEFINED 109102286000                       # Cumulative time (in ticks) in various power states
system.cpu.dcache.tags.tagsinuse          2034.954345                       # Cycle average of tags in use
system.cpu.dcache.tags.total_refs            35326821                       # Total number of references to valid blocks.
system.cpu.dcache.tags.sampled_refs             49129                       # Sample count of references to valid blocks.
system.cpu.dcache.tags.avg_refs            719.062489                       # Average number of references to valid blocks.
system.cpu.dcache.tags.warmup_cycle            223000                       # Cycle when the warmup percentage was hit.
system.cpu.dcache.tags.occ_blocks::.cpu.data  2034.954345                       # Average occupied blocks per requestor
system.cpu.dcache.tags.occ_percent::.cpu.data     0.993630                       # Average percentage of cache occupancy
system.cpu.dcache.tags.occ_percent::total     0.993630                       # Average percentage of cache occupancy
system.cpu.dcache.tags.occ_task_id_blocks::1024         2048                       # Occupied blocks per task id
system.cpu.dcache.tags.age_task_id_blocks_1024::0            3                       # Occupied blocks per task id
system.cpu.dcache.tags.age_task_id_blocks_1024::1           20                       # Occupied blocks per task id
system.cpu.dcache.tags.age_task_id_blocks_1024::2          230                       # Occupied blocks per task id
system.cpu.dcache.tags.age_task_id_blocks_1024::3         1626                       # Occupied blocks per task id
system.cpu.dcache.tags.age_task_id_blocks_1024::4          169                       # Occupied blocks per task id
system.cpu.dcache.tags.occ_task_id_percent::1024            1                       # Percentage of cache occupancy per task id
system.cpu.dcache.tags.tag_accesses          70738693                       # Number of tag accesses
system.cpu.dcache.tags.data_accesses         70738693                       # Number of data accesses
system.cpu.dcache.tags.power_state.pwrStateResidencyTicks::UNDEFINED 109102286000                       # Cumulative time (in ticks) in various power states
system.cpu.dtb.instHits                             0                       # ITB inst hits
system.cpu.dtb.instMisses                           0                       # ITB inst misses
system.cpu.dtb.readHits                             0                       # DTB read hits
system.cpu.dtb.readMisses                           0                       # DTB read misses
system.cpu.dtb.writeHits                            0                       # DTB write hits
system.cpu.dtb.writeMisses                          0                       # DTB write misses
system.cpu.dtb.inserts                              0                       # Number of times an entry is inserted into the TLB
system.cpu.dtb.flushTlb                             0                       # Number of times complete TLB was flushed
system.cpu.dtb.flushTlbMva                          0                       # Number of times TLB was flushed by MVA
system.cpu.dtb.flushTlbMvaAsid                      0                       # Number of times TLB was flushed by MVA & ASID
system.cpu.dtb.flushTlbAsid                         0                       # Number of times TLB was flushed by ASID
system.cpu.dtb.flushedEntries                       0                       # Number of entries that have been flushed from TLB
system.cpu.dtb.alignFaults                          0                       # Number of TLB faults due to alignment restrictions
system.cpu.dtb.prefetchFaults                       0                       # Number of TLB faults due to prefetch
system.cpu.dtb.domainFaults                         0                       # Number of TLB faults due to domain restrictions
system.cpu.dtb.permsFaults                          0                       # Number of TLB faults due to permissions restrictions
system.cpu.dtb.readAccesses                         0                       # DTB read accesses
system.cpu.dtb.writeAccesses                        0                       # DTB write accesses
system.cpu.dtb.instAccesses                         0                       # ITB inst accesses
system.cpu.dtb.hits                                 0                       # Total TLB (inst and data) hits
system.cpu.dtb.misses                               0                       # Total TLB (inst and data) misses
system.cpu.dtb.accesses                             0                       # Total TLB (inst and data) accesses
system.cpu.dtb.stage2_mmu.stage2_tlb.instHits            0                       # ITB inst hits
system.cpu.dtb.stage2_mmu.stage2_tlb.instMisses            0                       # ITB inst misses
system.cpu.dtb.stage2_mmu.stage2_tlb.readHits            0                       # DTB read hits
system.cpu.dtb.stage2_mmu.stage2_tlb.readMisses            0                       # DTB read misses
system.cpu.dtb.stage2_mmu.stage2_tlb.writeHits            0                       # DTB write hits
system.cpu.dtb.stage2_mmu.stage2_tlb.writeMisses            0                       # DTB write misses
system.cpu.dtb.stage2_mmu.stage2_tlb.inserts            0                       # Number of times an entry is inserted into the TLB
system.cpu.dtb.stage2_mmu.stage2_tlb.flushTlb            0                       # Number of times complete TLB was flushed
system.cpu.dtb.stage2_mmu.stage2_tlb.flushTlbMva            0                       # Number of times TLB was flushed by MVA
system.cpu.dtb.stage2_mmu.stage2_tlb.flushTlbMvaAsid            0                       # Number of times TLB was flushed by MVA & ASID
system.cpu.dtb.stage2_mmu.stage2_tlb.flushTlbAsid            0                       # Number of times TLB was flushed by ASID
system.cpu.dtb.stage2_mmu.stage2_tlb.flushedEntries            0                       # Number of entries that have been flushed from TLB
system.cpu.dtb.stage2_mmu.stage2_tlb.alignFaults            0                       # Number of TLB faults due to alignment restrictions
system.cpu.dtb.stage2_mmu.stage2_tlb.prefetchFaults            0                       # Number of TLB faults due to prefetch
system.cpu.dtb.stage2_mmu.stage2_tlb.domainFaults            0                       # Number of TLB faults due to domain restrictions
system.cpu.dtb.stage2_mmu.stage2_tlb.permsFaults            0                       # Number of TLB faults due to permissions restrictions
system.cpu.dtb.stage2_mmu.stage2_tlb.readAccesses            0                       # DTB read accesses
system.cpu.dtb.stage2_mmu.stage2_tlb.writeAccesses            0                       # DTB write accesses
system.cpu.dtb.stage2_mmu.stage2_tlb.instAccesses            0                       # ITB inst accesses
system.cpu.dtb.stage2_mmu.stage2_tlb.hits            0                       # Total TLB (inst and data) hits
system.cpu.dtb.stage2_mmu.stage2_tlb.misses            0                       # Total TLB (inst and data) misses
system.cpu.dtb.stage2_mmu.stage2_tlb.accesses            0                       # Total TLB (inst and data) accesses
system.cpu.dtb.stage2_mmu.stage2_tlb.walker.walks            0                       # Table walker walks requested
system.cpu.dtb.stage2_mmu.stage2_tlb.walker.requestOrigin_Requested::Data            0                       # Table walker requests started/completed, data/inst
system.cpu.dtb.stage2_mmu.stage2_tlb.walker.requestOrigin_Requested::Inst            0                       # Table walker requests started/completed, data/inst
system.cpu.dtb.stage2_mmu.stage2_tlb.walker.requestOrigin_Requested::total            0                       # Table walker requests started/completed, data/inst
system.cpu.dtb.stage2_mmu.stage2_tlb.walker.requestOrigin_Completed::Data            0                       # Table walker requests started/completed, data/inst
system.cpu.dtb.stage2_mmu.stage2_tlb.walker.requestOrigin_Completed::Inst            0                       # Table walker requests started/completed, data/inst
system.cpu.dtb.stage2_mmu.stage2_tlb.walker.requestOrigin_Completed::total            0                       # Table walker requests started/completed, data/inst
system.cpu.dtb.stage2_mmu.stage2_tlb.walker.requestOrigin::total            0                       # Table walker requests started/completed, data/inst
system.cpu.dtb.stage2_mmu.stage2_tlb.walker.power_state.pwrStateResidencyTicks::UNDEFINED 109102286000                       # Cumulative time (in ticks) in various power states
system.cpu.dtb.walker.walks                         0                       # Table walker walks requested
system.cpu.dtb.walker.requestOrigin_Requested::Data            0                       # Table walker requests started/completed, data/inst
system.cpu.dtb.walker.requestOrigin_Requested::Inst            0                       # Table walker requests started/completed, data/inst
system.cpu.dtb.walker.requestOrigin_Requested::total            0                       # Table walker requests started/completed, data/inst
system.cpu.dtb.walker.requestOrigin_Completed::Data            0                       # Table walker requests started/completed, data/inst
system.cpu.dtb.walker.requestOrigin_Completed::Inst            0                       # Table walker requests started/completed, data/inst
system.cpu.dtb.walker.requestOrigin_Completed::total            0                       # Table walker requests started/completed, data/inst
system.cpu.dtb.walker.requestOrigin::total            0                       # Table walker requests started/completed, data/inst
system.cpu.dtb.walker.power_state.pwrStateResidencyTicks::UNDEFINED 109102286000                       # Cumulative time (in ticks) in various power states
system.cpu.fetch2.intInstructions            49125255                       # Number of integer instructions successfully decoded
system.cpu.fetch2.fpInstructions                    0                       # Number of floating point instructions successfully decoded
system.cpu.fetch2.vecInstructions                   0                       # Number of SIMD instructions successfully decoded
system.cpu.fetch2.loadInstructions           17532432                       # Number of memory load instructions successfully decoded
system.cpu.fetch2.storeInstructions          10086685                       # Number of memory store instructions successfully decoded
system.cpu.fetch2.amoInstructions                   0                       # Number of memory atomic instructions successfully decoded
system.cpu.icache.demand_hits::.cpu.inst     27003204                       # number of demand (read+write) hits
system.cpu.icache.demand_hits::total         27003204                       # number of demand (read+write) hits
system.cpu.icache.overall_hits::.cpu.inst     27003204                       # number of overall hits
system.cpu.icache.overall_hits::total        27003204                       # number of overall hits
system.cpu.icache.demand_misses::.cpu.inst          515                       # number of demand (read+write) misses
system.cpu.icache.demand_misses::total            515                       # number of demand (read+write) misses
system.cpu.icache.overall_misses::.cpu.inst          515                       # number of overall misses
system.cpu.icache.overall_misses::total           515                       # number of overall misses
system.cpu.icache.demand_miss_latency::.cpu.inst     51536000                       # number of demand (read+write) miss cycles
system.cpu.icache.demand_miss_latency::total     51536000                       # number of demand (read+write) miss cycles
system.cpu.icache.overall_miss_latency::.cpu.inst     51536000                       # number of overall miss cycles
system.cpu.icache.overall_miss_latency::total     51536000                       # number of overall miss cycles
system.cpu.icache.demand_accesses::.cpu.inst     27003719                       # number of demand (read+write) accesses
system.cpu.icache.demand_accesses::total     27003719                       # number of demand (read+write) accesses
system.cpu.icache.overall_accesses::.cpu.inst     27003719                       # number of overall (read+write) accesses
system.cpu.icache.overall_accesses::total     27003719                       # number of overall (read+write) accesses
system.cpu.icache.demand_miss_rate::.cpu.inst     0.000019                       # miss rate for demand accesses
system.cpu.icache.demand_miss_rate::total     0.000019                       # miss rate for demand accesses
system.cpu.icache.overall_miss_rate::.cpu.inst     0.000019                       # miss rate for overall accesses
system.cpu.icache.overall_miss_rate::total     0.000019                       # miss rate for overall accesses
system.cpu.icache.demand_avg_miss_latency::.cpu.inst 100069.902913                       # average overall miss latency
system.cpu.icache.demand_avg_miss_latency::total 100069.902913                       # average overall miss latency
system.cpu.icache.overall_avg_miss_latency::.cpu.inst 100069.902913                       # average overall miss latency
system.cpu.icache.overall_avg_miss_latency::total 100069.902913                       # average overall miss latency
system.cpu.icache.blocked_cycles::no_mshrs            0                       # number of cycles access was blocked
system.cpu.icache.blocked_cycles::no_targets            0                       # number of cycles access was blocked
system.cpu.icache.blocked::no_mshrs                 0                       # number of cycles access was blocked
system.cpu.icache.blocked::no_targets               0                       # number of cycles access was blocked
system.cpu.icache.avg_blocked_cycles::no_mshrs          nan                       # average number of cycles each access was blocked
system.cpu.icache.avg_blocked_cycles::no_targets          nan                       # average number of cycles each access was blocked
system.cpu.icache.demand_mshr_misses::.cpu.inst          515                       # number of demand (read+write) MSHR misses
system.cpu.icache.demand_mshr_misses::total          515                       # number of demand (read+write) MSHR misses
system.cpu.icache.overall_mshr_misses::.cpu.inst          515                       # number of overall MSHR misses
system.cpu.icache.overall_mshr_misses::total          515                       # number of overall MSHR misses
system.cpu.icache.demand_mshr_miss_latency::.cpu.inst     50506000                       # number of demand (read+write) MSHR miss cycles
system.cpu.icache.demand_mshr_miss_latency::total     50506000                       # number of demand (read+write) MSHR miss cycles
system.cpu.icache.overall_mshr_miss_latency::.cpu.inst     50506000                       # number of overall MSHR miss cycles
system.cpu.icache.overall_mshr_miss_latency::total     50506000                       # number of overall MSHR miss cycles
system.cpu.icache.demand_mshr_miss_rate::.cpu.inst     0.000019                       # mshr miss rate for demand accesses
system.cpu.icache.demand_mshr_miss_rate::total     0.000019                       # mshr miss rate for demand accesses
system.cpu.icache.overall_mshr_miss_rate::.cpu.inst     0.000019                       # mshr miss rate for overall accesses
system.cpu.icache.overall_mshr_miss_rate::total     0.000019                       # mshr miss rate for overall accesses
system.cpu.icache.demand_avg_mshr_miss_latency::.cpu.inst 98069.902913                       # average overall mshr miss latency
system.cpu.icache.demand_avg_mshr_miss_latency::total 98069.902913                       # average overall mshr miss latency
system.cpu.icache.overall_avg_mshr_miss_latency::.cpu.inst 98069.902913                       # average overall mshr miss latency
system.cpu.icache.overall_avg_mshr_miss_latency::total 98069.902913                       # average overall mshr miss latency
system.cpu.icache.replacements                      0                       # number of replacements
system.cpu.icache.ReadReq_hits::.cpu.inst     27003204                       # number of ReadReq hits
system.cpu.icache.ReadReq_hits::total        27003204                       # number of ReadReq hits
system.cpu.icache.ReadReq_misses::.cpu.inst          515                       # number of ReadReq misses
system.cpu.icache.ReadReq_misses::total           515                       # number of ReadReq misses
system.cpu.icache.ReadReq_miss_latency::.cpu.inst     51536000                       # number of ReadReq miss cycles
system.cpu.icache.ReadReq_miss_latency::total     51536000                       # number of ReadReq miss cycles
system.cpu.icache.ReadReq_accesses::.cpu.inst     27003719                       # number of ReadReq accesses(hits+misses)
system.cpu.icache.ReadReq_accesses::total     27003719                       # number of ReadReq accesses(hits+misses)
system.cpu.icache.ReadReq_miss_rate::.cpu.inst     0.000019                       # miss rate for ReadReq accesses
system.cpu.icache.ReadReq_miss_rate::total     0.000019                       # miss rate for ReadReq accesses
system.cpu.icache.ReadReq_avg_miss_latency::.cpu.inst 100069.902913                       # average ReadReq miss latency
system.cpu.icache.ReadReq_avg_miss_latency::total 100069.902913                       # average ReadReq miss latency
system.cpu.icache.ReadReq_mshr_misses::.cpu.inst          515                       # number of ReadReq MSHR misses
system.cpu.icache.ReadReq_mshr_misses::total          515                       # number of ReadReq MSHR misses
system.cpu.icache.ReadReq_mshr_miss_latency::.cpu.inst     50506000                       # number of ReadReq MSHR miss cycles
system.cpu.icache.ReadReq_mshr_miss_latency::total     50506000                       # number of ReadReq MSHR miss cycles
system.cpu.icache.ReadReq_mshr_miss_rate::.cpu.inst     0.000019                       # mshr miss rate for ReadReq accesses
system.cpu.icache.ReadReq_mshr_miss_rate::total     0.000019                       # mshr miss rate for ReadReq accesses
system.cpu.icache.ReadReq_avg_mshr_miss_latency::.cpu.inst 98069.902913                       # average ReadReq mshr miss latency
system.cpu.icache.ReadReq_avg_mshr_miss_latency::total 98069.902913                       # average ReadReq mshr miss latency
system.cpu.icache.power_state.pwrStateResidencyTicks::UNDEFINED 109102286000                       # Cumulative time (in ticks) in various power states
system.cpu.icache.tags.tagsinuse           513.896564                       # Cycle average of tags in use
system.cpu.icache.tags.total_refs            27003719                       # Total number of references to valid blocks.
system.cpu.icache.tags.sampled_refs               515                       # Sample count of references to valid blocks.
system.cpu.icache.tags.avg_refs          52434.405825                       # Average number of references to valid blocks.
system.cpu.icache.tags.warmup_cycle            108000                       # Cycle when the warmup percentage was hit.
system.cpu.icache.tags.occ_blocks::.cpu.inst   513.896564                       # Average occupied blocks per requestor
system.cpu.icache.tags.occ_percent::.cpu.inst     0.250926                       # Average percentage of cache occupancy
system.cpu.icache.tags.occ_percent::total     0.250926                       # Average percentage of cache occupancy
system.cpu.icache.tags.occ_task_id_blocks::1024          515                       # Occupied blocks per task id
system.cpu.icache.tags.age_task_id_blocks_1024::4          515                       # Occupied blocks per task id
system.cpu.icache.tags.occ_task_id_percent::1024     0.251465                       # Percentage of cache occupancy per task id
system.cpu.icache.tags.tag_accesses          54007953                       # Number of tag accesses
system.cpu.icache.tags.data_accesses         54007953                       # Number of data accesses
system.cpu.icache.tags.power_state.pwrStateResidencyTicks::UNDEFINED 109102286000                       # Cumulative time (in ticks) in various power states
system.cpu.itb.instHits                             0                       # ITB inst hits
system.cpu.itb.instMisses                           0                       # ITB inst misses
system.cpu.itb.readHits                             0                       # DTB read hits
system.cpu.itb.readMisses                           0                       # DTB read misses
system.cpu.itb.writeHits                            0                       # DTB write hits
system.cpu.itb.writeMisses                          0                       # DTB write misses
system.cpu.itb.inserts                              0                       # Number of times an entry is inserted into the TLB
system.cpu.itb.flushTlb                             0                       # Number of times complete TLB was flushed
system.cpu.itb.flushTlbMva                          0                       # Number of times TLB was flushed by MVA
system.cpu.itb.flushTlbMvaAsid                      0                       # Number of times TLB was flushed by MVA & ASID
system.cpu.itb.flushTlbAsid                         0                       # Number of times TLB was flushed by ASID
system.cpu.itb.flushedEntries                       0                       # Number of entries that have been flushed from TLB
system.cpu.itb.alignFaults                          0                       # Number of TLB faults due to alignment restrictions
system.cpu.itb.prefetchFaults                       0                       # Number of TLB faults due to prefetch
system.cpu.itb.domainFaults                         0                       # Number of TLB faults due to domain restrictions
system.cpu.itb.permsFaults                          0                       # Number of TLB faults due to permissions restrictions
system.cpu.itb.readAccesses                         0                       # DTB read accesses
system.cpu.itb.writeAccesses                        0                       # DTB write accesses
system.cpu.itb.instAccesses                         0                       # ITB inst accesses
system.cpu.itb.hits                                 0                       # Total TLB (inst and data) hits
system.cpu.itb.misses                               0                       # Total TLB (inst and data) misses
system.cpu.itb.accesses                             0                       # Total TLB (inst and data) accesses
system.cpu.itb.stage2_mmu.stage2_tlb.instHits            0                       # ITB inst hits
system.cpu.itb.stage2_mmu.stage2_tlb.instMisses            0                       # ITB inst misses
system.cpu.itb.stage2_mmu.stage2_tlb.readHits            0                       # DTB read hits
system.cpu.itb.stage2_mmu.stage2_tlb.readMisses            0                       # DTB read misses
system.cpu.itb.stage2_mmu.stage2_tlb.writeHits            0                       # DTB write hits
system.cpu.itb.stage2_mmu.stage2_tlb.writeMisses            0                       # DTB write misses
system.cpu.itb.stage2_mmu.stage2_tlb.inserts            0                       # Number of times an entry is inserted into the TLB
system.cpu.itb.stage2_mmu.stage2_tlb.flushTlb            0                       # Number of times complete TLB was flushed
system.cpu.itb.stage2_mmu.stage2_tlb.flushTlbMva            0                       # Number of times TLB was flushed by MVA
system.cpu.itb.stage2_mmu.stage2_tlb.flushTlbMvaAsid            0                       # Number of times TLB was flushed by MVA & ASID
system.cpu.itb.stage2_mmu.stage2_tlb.flushTlbAsid            0                       # Number of times TLB was flushed by ASID
system.cpu.itb.stage2_mmu.stage2_tlb.flushedEntries            0                       # Number of entries that have been flushed from TLB
system.cpu.itb.stage2_mmu.stage2_tlb.alignFaults            0                       # Number of TLB faults due to alignment restrictions
system.cpu.itb.stage2_mmu.stage2_tlb.prefetchFaults            0                       # Number of TLB faults due to prefetch
system.cpu.itb.stage2_mmu.stage2_tlb.domainFaults            0                       # Number of TLB faults due to domain restrictions
system.cpu.itb.stage2_mmu.stage2_tlb.permsFaults            0                       # Number of TLB faults due to permissions restrictions
system.cpu.itb.stage2_mmu.stage2_tlb.readAccesses            0                       # DTB read accesses
system.cpu.itb.stage2_mmu.stage2_tlb.writeAccesses            0                       # DTB write accesses
system.cpu.itb.stage2_mmu.stage2_tlb.instAccesses            0                       # ITB inst accesses
system.cpu.itb.stage2_mmu.stage2_tlb.hits            0                       # Total TLB (inst and data) hits
system.cpu.itb.stage2_mmu.stage2_tlb.misses            0                       # Total TLB (inst and data) misses
system.cpu.itb.stage2_mmu.stage2_tlb.accesses            0                       # Total TLB (inst and data) accesses
system.cpu.itb.stage2_mmu.stage2_tlb.walker.walks            0                       # Table walker walks requested
system.cpu.itb.stage2_mmu.stage2_tlb.walker.requestOrigin_Requested::Data            0                       # Table walker requests started/completed, data/inst
system.cpu.itb.stage2_mmu.stage2_tlb.walker.requestOrigin_Requested::Inst            0                       # Table walker requests started/completed, data/inst
system.cpu.itb.stage2_mmu.stage2_tlb.walker.requestOrigin_Requested::total            0                       # Table walker requests started/completed, data/inst
system.cpu.itb.stage2_mmu.stage2_tlb.walker.requestOrigin_Completed::Data            0                       # Table walker requests started/completed, data/inst
system.cpu.itb.stage2_mmu.stage2_tlb.walker.requestOrigin_Completed::Inst            0                       # Table walker requests started/completed, data/inst
system.cpu.itb.stage2_mmu.stage2_tlb.walker.requestOrigin_Completed::total            0                       # Table walker requests started/completed, data/inst
system.cpu.itb.stage2_mmu.stage2_tlb.walker.requestOrigin::total            0                       # Table walker requests started/completed, data/inst
system.cpu.itb.stage2_mmu.stage2_tlb.walker.power_state.pwrStateResidencyTicks::UNDEFINED 109102286000                       # Cumulative time (in ticks) in various power states
system.cpu.itb.walker.walks                         0                       # Table walker walks requested
system.cpu.itb.walker.requestOrigin_Requested::Data            0                       # Table walker requests started/completed, data/inst
system.cpu.itb.walker.requestOrigin_Requested::Inst            0                       # Table walker requests started/completed, data/inst
system.cpu.itb.walker.requestOrigin_Requested::total            0                       # Table walker requests started/completed, data/inst
system.cpu.itb.walker.requestOrigin_Completed::Data            0                       # Table walker requests started/completed, data/inst
system.cpu.itb.walker.requestOrigin_Completed::Inst            0                       # Table walker requests started/completed, data/inst
system.cpu.itb.walker.requestOrigin_Completed::total            0                       # Table walker requests started/completed, data/inst
system.cpu.itb.walker.requestOrigin::total            0                       # Table walker requests started/completed, data/inst
system.cpu.itb.walker.power_state.pwrStateResidencyTicks::UNDEFINED 109102286000                       # Cumulative time (in ticks) in various power states
system.cpu.power_state.pwrStateResidencyTicks::ON 109102286000                       # Cumulative time (in ticks) in various power states
system.cpu.thread_0.numInsts                100000001                       # Number of Instructions committed
system.cpu.thread_0.numOps                  109139393                       # Number of Ops committed
system.cpu.thread_0.numMemRefs                      0                       # Number of Memory References
system.cpu_clk_domain.clock                      1000                       # Clock period in ticks
system.cpu_voltage_domain.voltage                   1                       # Voltage in Volts
system.l2.demand_hits::.cpu.inst                    9                       # number of demand (read+write) hits
system.l2.demand_hits::.cpu.data                10800                       # number of demand (read+write) hits
system.l2.demand_hits::total                    10809                       # number of demand (read+write) hits
system.l2.overall_hits::.cpu.inst                   9                       # number of overall hits
system.l2.overall_hits::.cpu.data               10800                       # number of overall hits
system.l2.overall_hits::total                   10809                       # number of overall hits
system.l2.demand_misses::.cpu.inst                506                       # number of demand (read+write) misses
system.l2.demand_misses::.cpu.data              38329                       # number of demand (read+write) misses
system.l2.demand_misses::total                  38835                       # number of demand (read+write) misses
system.l2.overall_misses::.cpu.inst               506                       # number of overall misses
system.l2.overall_misses::.cpu.data             38329                       # number of overall misses
system.l2.overall_misses::total                 38835                       # number of overall misses
system.l2.demand_miss_latency::.cpu.inst     48754000                       # number of demand (read+write) miss cycles
system.l2.demand_miss_latency::.cpu.data   4137884000                       # number of demand (read+write) miss cycles
system.l2.demand_miss_latency::total       4186638000                       # number of demand (read+write) miss cycles
system.l2.overall_miss_latency::.cpu.inst     48754000                       # number of overall miss cycles
system.l2.overall_miss_latency::.cpu.data   4137884000                       # number of overall miss cycles
system.l2.overall_miss_latency::total      4186638000                       # number of overall miss cycles
system.l2.demand_accesses::.cpu.inst              515                       # number of demand (read+write) accesses
system.l2.demand_accesses::.cpu.data            49129                       # number of demand (read+write) accesses
system.l2.demand_accesses::total                49644                       # number of demand (read+write) accesses
system.l2.overall_accesses::.cpu.inst             515                       # number of overall (read+write) accesses
system.l2.overall_accesses::.cpu.data           49129                       # number of overall (read+write) accesses
system.l2.overall_accesses::total               49644                       # number of overall (read+write) accesses
system.l2.demand_miss_rate::.cpu.inst        0.982524                       # miss rate for demand accesses
system.l2.demand_miss_rate::.cpu.data        0.780171                       # miss rate for demand accesses
system.l2.demand_miss_rate::total            0.782270                       # miss rate for demand accesses
system.l2.overall_miss_rate::.cpu.inst       0.982524                       # miss rate for overall accesses
system.l2.overall_miss_rate::.cpu.data       0.780171                       # miss rate for overall accesses
system.l2.overall_miss_rate::total           0.782270                       # miss rate for overall accesses
system.l2.demand_avg_miss_latency::.cpu.inst 96351.778656                       # average overall miss latency
system.l2.demand_avg_miss_latency::.cpu.data 107957.003835                       # average overall miss latency
system.l2.demand_avg_miss_latency::total 107805.793743                       # average overall miss latency
system.l2.overall_avg_miss_latency::.cpu.inst 96351.778656                       # average overall miss latency
system.l2.overall_avg_miss_latency::.cpu.data 107957.003835                       # average overall miss latency
system.l2.overall_avg_miss_latency::total 107805.793743                       # average overall miss latency
system.l2.blocked_cycles::no_mshrs                  0                       # number of cycles access was blocked
system.l2.blocked_cycles::no_targets                0                       # number of cycles access was blocked
system.l2.blocked::no_mshrs                         0                       # number of cycles access was blocked
system.l2.blocked::no_targets                       0                       # number of cycles access was blocked
system.l2.avg_blocked_cycles::no_mshrs            nan                       # average number of cycles each access was blocked
system.l2.avg_blocked_cycles::no_targets          nan                       # average number of cycles each access was blocked
system.l2.writebacks::.writebacks                5478                       # number of writebacks
system.l2.writebacks::total                      5478                       # number of writebacks
system.l2.demand_mshr_hits::.cpu.data               1                       # number of demand (read+write) MSHR hits
system.l2.demand_mshr_hits::total                   1                       # number of demand (read+write) MSHR hits
system.l2.overall_mshr_hits::.cpu.data              1                       # number of overall MSHR hits
system.l2.overall_mshr_hits::total                  1                       # number of overall MSHR hits
system.l2.demand_mshr_misses::.cpu.inst           506                       # number of demand (read+write) MSHR misses
system.l2.demand_mshr_misses::.cpu.data         38328                       # number of demand (read+write) MSHR misses
system.l2.demand_mshr_misses::total             38834                       # number of demand (read+write) MSHR misses
system.l2.overall_mshr_misses::.cpu.inst          506                       # number of overall MSHR misses
system.l2.overall_mshr_misses::.cpu.data        38328                       # number of overall MSHR misses
system.l2.overall_mshr_misses::total            38834                       # number of overall MSHR misses
system.l2.demand_mshr_miss_latency::.cpu.inst     38634000                       # number of demand (read+write) MSHR miss cycles
system.l2.demand_mshr_miss_latency::.cpu.data   3371237000                       # number of demand (read+write) MSHR miss cycles
system.l2.demand_mshr_miss_latency::total   3409871000                       # number of demand (read+write) MSHR miss cycles
system.l2.overall_mshr_miss_latency::.cpu.inst     38634000                       # number of overall MSHR miss cycles
system.l2.overall_mshr_miss_latency::.cpu.data   3371237000                       # number of overall MSHR miss cycles
system.l2.overall_mshr_miss_latency::total   3409871000                       # number of overall MSHR miss cycles
system.l2.demand_mshr_miss_rate::.cpu.inst     0.982524                       # mshr miss rate for demand accesses
system.l2.demand_mshr_miss_rate::.cpu.data     0.780150                       # mshr miss rate for demand accesses
system.l2.demand_mshr_miss_rate::total       0.782250                       # mshr miss rate for demand accesses
system.l2.overall_mshr_miss_rate::.cpu.inst     0.982524                       # mshr miss rate for overall accesses
system.l2.overall_mshr_miss_rate::.cpu.data     0.780150                       # mshr miss rate for overall accesses
system.l2.overall_mshr_miss_rate::total      0.782250                       # mshr miss rate for overall accesses
system.l2.demand_avg_mshr_miss_latency::.cpu.inst 76351.778656                       # average overall mshr miss latency
system.l2.demand_avg_mshr_miss_latency::.cpu.data 87957.550616                       # average overall mshr miss latency
system.l2.demand_avg_mshr_miss_latency::total 87806.329505                       # average overall mshr miss latency
system.l2.overall_avg_mshr_miss_latency::.cpu.inst 76351.778656                       # average overall mshr miss latency
system.l2.overall_avg_mshr_miss_latency::.cpu.data 87957.550616                       # average overall mshr miss latency
system.l2.overall_avg_mshr_miss_latency::total 87806.329505                       # average overall mshr miss latency
system.l2.replacements                           6096                       # number of replacements
system.l2.WritebackDirty_hits::.writebacks        45674                       # number of WritebackDirty hits
system.l2.WritebackDirty_hits::total            45674                       # number of WritebackDirty hits
system.l2.WritebackDirty_accesses::.writebacks        45674                       # number of WritebackDirty accesses(hits+misses)
system.l2.WritebackDirty_accesses::total        45674                       # number of WritebackDirty accesses(hits+misses)
system.l2.CleanEvict_mshr_misses::.writebacks            2                       # number of CleanEvict MSHR misses
system.l2.CleanEvict_mshr_misses::total             2                       # number of CleanEvict MSHR misses
system.l2.CleanEvict_mshr_miss_rate::.writebacks          inf                       # mshr miss rate for CleanEvict accesses
system.l2.CleanEvict_mshr_miss_rate::total          inf                       # mshr miss rate for CleanEvict accesses
system.l2.ReadExReq_hits::.cpu.data                 9                       # number of ReadExReq hits
system.l2.ReadExReq_hits::total                     9                       # number of ReadExReq hits
system.l2.ReadExReq_misses::.cpu.data           37940                       # number of ReadExReq misses
system.l2.ReadExReq_misses::total               37940                       # number of ReadExReq misses
system.l2.ReadExReq_miss_latency::.cpu.data   4095389000                       # number of ReadExReq miss cycles
system.l2.ReadExReq_miss_latency::total    4095389000                       # number of ReadExReq miss cycles
system.l2.ReadExReq_accesses::.cpu.data         37949                       # number of ReadExReq accesses(hits+misses)
system.l2.ReadExReq_accesses::total             37949                       # number of ReadExReq accesses(hits+misses)
system.l2.ReadExReq_miss_rate::.cpu.data     0.999763                       # miss rate for ReadExReq accesses
system.l2.ReadExReq_miss_rate::total         0.999763                       # miss rate for ReadExReq accesses
system.l2.ReadExReq_avg_miss_latency::.cpu.data 107943.832367                       # average ReadExReq miss latency
system.l2.ReadExReq_avg_miss_latency::total 107943.832367                       # average ReadExReq miss latency
system.l2.ReadExReq_mshr_misses::.cpu.data        37940                       # number of ReadExReq MSHR misses
system.l2.ReadExReq_mshr_misses::total          37940                       # number of ReadExReq MSHR misses
system.l2.ReadExReq_mshr_miss_latency::.cpu.data   3336589000                       # number of ReadExReq MSHR miss cycles
system.l2.ReadExReq_mshr_miss_latency::total   3336589000                       # number of ReadExReq MSHR miss cycles
system.l2.ReadExReq_mshr_miss_rate::.cpu.data     0.999763                       # mshr miss rate for ReadExReq accesses
system.l2.ReadExReq_mshr_miss_rate::total     0.999763                       # mshr miss rate for ReadExReq accesses
system.l2.ReadExReq_avg_mshr_miss_latency::.cpu.data 87943.832367                       # average ReadExReq mshr miss latency
system.l2.ReadExReq_avg_mshr_miss_latency::total 87943.832367                       # average ReadExReq mshr miss latency
system.l2.ReadCleanReq_hits::.cpu.inst              9                       # number of ReadCleanReq hits
system.l2.ReadCleanReq_hits::total                  9                       # number of ReadCleanReq hits
system.l2.ReadCleanReq_misses::.cpu.inst          506                       # number of ReadCleanReq misses
system.l2.ReadCleanReq_misses::total              506                       # number of ReadCleanReq misses
system.l2.ReadCleanReq_miss_latency::.cpu.inst     48754000                       # number of ReadCleanReq miss cycles
system.l2.ReadCleanReq_miss_latency::total     48754000                       # number of ReadCleanReq miss cycles
system.l2.ReadCleanReq_accesses::.cpu.inst          515                       # number of ReadCleanReq accesses(hits+misses)
system.l2.ReadCleanReq_accesses::total            515                       # number of ReadCleanReq accesses(hits+misses)
system.l2.ReadCleanReq_miss_rate::.cpu.inst     0.982524                       # miss rate for ReadCleanReq accesses
system.l2.ReadCleanReq_miss_rate::total      0.982524                       # miss rate for ReadCleanReq accesses
system.l2.ReadCleanReq_avg_miss_latency::.cpu.inst 96351.778656                       # average ReadCleanReq miss latency
system.l2.ReadCleanReq_avg_miss_latency::total 96351.778656                       # average ReadCleanReq miss latency
system.l2.ReadCleanReq_mshr_misses::.cpu.inst          506                       # number of ReadCleanReq MSHR misses
system.l2.ReadCleanReq_mshr_misses::total          506                       # number of ReadCleanReq MSHR misses
system.l2.ReadCleanReq_mshr_miss_latency::.cpu.inst     38634000                       # number of ReadCleanReq MSHR miss cycles
system.l2.ReadCleanReq_mshr_miss_latency::total     38634000                       # number of ReadCleanReq MSHR miss cycles
system.l2.ReadCleanReq_mshr_miss_rate::.cpu.inst     0.982524                       # mshr miss rate for ReadCleanReq accesses
system.l2.ReadCleanReq_mshr_miss_rate::total     0.982524                       # mshr miss rate for ReadCleanReq accesses
system.l2.ReadCleanReq_avg_mshr_miss_latency::.cpu.inst 76351.778656                       # average ReadCleanReq mshr miss latency
system.l2.ReadCleanReq_avg_mshr_miss_latency::total 76351.778656                       # average ReadCleanReq mshr miss latency
system.l2.ReadSharedReq_hits::.cpu.data         10791                       # number of ReadSharedReq hits
system.l2.ReadSharedReq_hits::total             10791                       # number of ReadSharedReq hits
system.l2.ReadSharedReq_misses::.cpu.data          389                       # number of ReadSharedReq misses
system.l2.ReadSharedReq_misses::total             389                       # number of ReadSharedReq misses
system.l2.ReadSharedReq_miss_latency::.cpu.data     42495000                       # number of ReadSharedReq miss cycles
system.l2.ReadSharedReq_miss_latency::total     42495000                       # number of ReadSharedReq miss cycles
system.l2.ReadSharedReq_accesses::.cpu.data        11180                       # number of ReadSharedReq accesses(hits+misses)
system.l2.ReadSharedReq_accesses::total         11180                       # number of ReadSharedReq accesses(hits+misses)
system.l2.ReadSharedReq_miss_rate::.cpu.data     0.034794                       # miss rate for ReadSharedReq accesses
system.l2.ReadSharedReq_miss_rate::total     0.034794                       # miss rate for ReadSharedReq accesses
system.l2.ReadSharedReq_avg_miss_latency::.cpu.data 109241.645244                       # average ReadSharedReq miss latency
system.l2.ReadSharedReq_avg_miss_latency::total 109241.645244                       # average ReadSharedReq miss latency
system.l2.ReadSharedReq_mshr_hits::.cpu.data            1                       # number of ReadSharedReq MSHR hits
system.l2.ReadSharedReq_mshr_hits::total            1                       # number of ReadSharedReq MSHR hits
system.l2.ReadSharedReq_mshr_misses::.cpu.data          388                       # number of ReadSharedReq MSHR misses
system.l2.ReadSharedReq_mshr_misses::total          388                       # number of ReadSharedReq MSHR misses
system.l2.ReadSharedReq_mshr_miss_latency::.cpu.data     34648000                       # number of ReadSharedReq MSHR miss cycles
system.l2.ReadSharedReq_mshr_miss_latency::total     34648000                       # number of ReadSharedReq MSHR miss cycles
system.l2.ReadSharedReq_mshr_miss_rate::.cpu.data     0.034705                       # mshr miss rate for ReadSharedReq accesses
system.l2.ReadSharedReq_mshr_miss_rate::total     0.034705                       # mshr miss rate for ReadSharedReq accesses
system.l2.ReadSharedReq_avg_mshr_miss_latency::.cpu.data 89298.969072                       # average ReadSharedReq mshr miss latency
system.l2.ReadSharedReq_avg_mshr_miss_latency::total 89298.969072                       # average ReadSharedReq mshr miss latency
system.l2.power_state.pwrStateResidencyTicks::UNDEFINED 109102286000                       # Cumulative time (in ticks) in various power states
system.l2.tags.tagsinuse                 26040.778063                       # Cycle average of tags in use
system.l2.tags.total_refs                       96706                       # Total number of references to valid blocks.
system.l2.tags.sampled_refs                     38864                       # Sample count of references to valid blocks.
system.l2.tags.avg_refs                      2.488318                       # Average number of references to valid blocks.
system.l2.tags.warmup_cycle                     87000                       # Cycle when the warmup percentage was hit.
system.l2.tags.occ_blocks::.writebacks       3.670102                       # Average occupied blocks per requestor
system.l2.tags.occ_blocks::.cpu.inst       259.229314                       # Average occupied blocks per requestor
system.l2.tags.occ_blocks::.cpu.data     25777.878648                       # Average occupied blocks per requestor
system.l2.tags.occ_percent::.writebacks      0.000112                       # Average percentage of cache occupancy
system.l2.tags.occ_percent::.cpu.inst        0.007911                       # Average percentage of cache occupancy
system.l2.tags.occ_percent::.cpu.data        0.786678                       # Average percentage of cache occupancy
system.l2.tags.occ_percent::total            0.794701                       # Average percentage of cache occupancy
system.l2.tags.occ_task_id_blocks::1024         32768                       # Occupied blocks per task id
system.l2.tags.age_task_id_blocks_1024::0            2                       # Occupied blocks per task id
system.l2.tags.age_task_id_blocks_1024::1           17                       # Occupied blocks per task id
system.l2.tags.age_task_id_blocks_1024::2          190                       # Occupied blocks per task id
system.l2.tags.age_task_id_blocks_1024::3         1864                       # Occupied blocks per task id
system.l2.tags.age_task_id_blocks_1024::4        30695                       # Occupied blocks per task id
system.l2.tags.occ_task_id_percent::1024            1                       # Percentage of cache occupancy per task id
system.l2.tags.tag_accesses                    232282                       # Number of tag accesses
system.l2.tags.data_accesses                   232282                       # Number of data accesses
system.l2.tags.power_state.pwrStateResidencyTicks::UNDEFINED 109102286000                       # Cumulative time (in ticks) in various power states
system.mem_ctrls.avgPriority_.writebacks::samples      5478.00                       # Average QoS priority value for accepted requests
system.mem_ctrls.avgPriority_.cpu.inst::samples       506.00                       # Average QoS priority value for accepted requests
system.mem_ctrls.avgPriority_.cpu.data::samples     38326.00                       # Average QoS priority value for accepted requests
system.mem_ctrls.priorityMinLatency      0.000000018750                       # per QoS priority minimum request to response latency (s)
system.mem_ctrls.priorityMaxLatency      0.059831632500                       # per QoS priority maximum request to response latency (s)
system.mem_ctrls.numReadWriteTurnArounds          303                       # Number of turnarounds from READ to WRITE
system.mem_ctrls.numWriteReadTurnArounds          303                       # Number of turnarounds from WRITE to READ
system.mem_ctrls.numStayReadState              111160                       # Number of times bus staying in READ state
system.mem_ctrls.numStayWriteState               5156                       # Number of times bus staying in WRITE state
system.mem_ctrls.readReqs                       38834                       # Number of read requests accepted
system.mem_ctrls.writeReqs                       5478                       # Number of write requests accepted
system.mem_ctrls.readBursts                     38834                       # Number of controller read bursts, including those serviced by the write queue
system.mem_ctrls.writeBursts                     5478                       # Number of controller write bursts, including those merged in the write queue
system.mem_ctrls.servicedByWrQ                      2                       # Number of controller read bursts serviced by the write queue
system.mem_ctrls.mergedWrBursts                     0                       # Number of controller write bursts merged with an existing one
system.mem_ctrls.neitherReadNorWriteReqs            0                       # Number of requests that are neither read nor write
system.mem_ctrls.avgRdQLen                       1.00                       # Average read queue length when enqueuing
system.mem_ctrls.avgWrQLen                       8.96                       # Average write queue length when enqueuing
system.mem_ctrls.numRdRetry                         0                       # Number of times read queue was full causing retry
system.mem_ctrls.numWrRetry                         0                       # Number of times write queue was full causing retry
system.mem_ctrls.readPktSize::0                     0                       # Read request sizes (log2)
system.mem_ctrls.readPktSize::1                     0                       # Read request sizes (log2)
system.mem_ctrls.readPktSize::2                     0                       # Read request sizes (log2)
system.mem_ctrls.readPktSize::3                     0                       # Read request sizes (log2)
system.mem_ctrls.readPktSize::4                     0                       # Read request sizes (log2)
system.mem_ctrls.readPktSize::5                     0                       # Read request sizes (log2)
system.mem_ctrls.readPktSize::6                 38834                       # Read request sizes (log2)
system.mem_ctrls.writePktSize::0                    0                       # Write request sizes (log2)
system.mem_ctrls.writePktSize::1                    0                       # Write request sizes (log2)
system.mem_ctrls.writePktSize::2                    0                       # Write request sizes (log2)
system.mem_ctrls.writePktSize::3                    0                       # Write request sizes (log2)
system.mem_ctrls.writePktSize::4                    0                       # Write request sizes (log2)
system.mem_ctrls.writePktSize::5                    0                       # Write request sizes (log2)
system.mem_ctrls.writePktSize::6                 5478                       # Write request sizes (log2)
system.mem_ctrls.rdQLenPdf::0                   38705                       # What read queue length does an incoming req see
system.mem_ctrls.rdQLenPdf::1                     121                       # What read queue length does an incoming req see
system.mem_ctrls.rdQLenPdf::2                       6                       # What read queue length does an incoming req see
system.mem_ctrls.rdQLenPdf::3                       0                       # What read queue length does an incoming req see
system.mem_ctrls.rdQLenPdf::4                       0                       # What read queue length does an incoming req see
system.mem_ctrls.rdQLenPdf::5                       0                       # What read queue length does an incoming req see
system.mem_ctrls.rdQLenPdf::6                       0                       # What read queue length does an incoming req see
system.mem_ctrls.rdQLenPdf::7                       0                       # What read queue length does an incoming req see
system.mem_ctrls.rdQLenPdf::8                       0                       # What read queue length does an incoming req see
system.mem_ctrls.rdQLenPdf::9                       0                       # What read queue length does an incoming req see
system.mem_ctrls.rdQLenPdf::10                      0                       # What read queue length does an incoming req see
system.mem_ctrls.rdQLenPdf::11                      0                       # What read queue length does an incoming req see
system.mem_ctrls.rdQLenPdf::12                      0                       # What read queue length does an incoming req see
[...]
system.mem_ctrls.dram.bw_inst_read::total       296822                       # Instruction read bandwidth from this memory (bytes/s)
system.mem_ctrls.dram.bw_write::.writebacks      3213425                       # Write bandwidth from this memory (bytes/s)
system.mem_ctrls.dram.bw_write::total         3213425                       # Write bandwidth from this memory (bytes/s)
system.mem_ctrls.dram.bw_total::.writebacks      3213425                       # Total bandwidth to/from this memory (bytes/s)
system.mem_ctrls.dram.bw_total::.cpu.inst       296822                       # Total bandwidth to/from this memory (bytes/s)
system.mem_ctrls.dram.bw_total::.cpu.data     22483415                       # Total bandwidth to/from this memory (bytes/s)
system.mem_ctrls.dram.bw_total::total        25993662                       # Total bandwidth to/from this memory (bytes/s)
system.mem_ctrls.dram.readBursts                38832                       # Number of DRAM read bursts
system.mem_ctrls.dram.writeBursts                5456                       # Number of DRAM write bursts
system.mem_ctrls.dram.perBankRdBursts::0         2373                       # Per bank write bursts
system.mem_ctrls.dram.perBankRdBursts::1         2350                       # Per bank write bursts
system.mem_ctrls.dram.perBankRdBursts::2         2388                       # Per bank write bursts
system.mem_ctrls.dram.perBankRdBursts::3         2487                       # Per bank write bursts
system.mem_ctrls.dram.perBankRdBursts::4         2461                       # Per bank write bursts
system.mem_ctrls.dram.perBankRdBursts::5         2471                       # Per bank write bursts
system.mem_ctrls.dram.perBankRdBursts::6         2487                       # Per bank write bursts
system.mem_ctrls.dram.perBankRdBursts::7         2513                       # Per bank write bursts
system.mem_ctrls.dram.perBankRdBursts::8         2493                       # Per bank write bursts
system.mem_ctrls.dram.perBankRdBursts::9         2474                       # Per bank write bursts
system.mem_ctrls.dram.perBankRdBursts::10         2507                       # Per bank write bursts
system.mem_ctrls.dram.perBankRdBursts::11         2455                       # Per bank write bursts
system.mem_ctrls.dram.perBankRdBursts::12         2315                       # Per bank write bursts
system.mem_ctrls.dram.perBankRdBursts::13         2364                       # Per bank write bursts
system.mem_ctrls.dram.perBankRdBursts::14         2339                       # Per bank write bursts
system.mem_ctrls.dram.perBankRdBursts::15         2355                       # Per bank write bursts
system.mem_ctrls.dram.perBankWrBursts::0          281                       # Per bank write bursts
system.mem_ctrls.dram.perBankWrBursts::1          270                       # Per bank write bursts
system.mem_ctrls.dram.perBankWrBursts::2          325                       # Per bank write bursts
system.mem_ctrls.dram.perBankWrBursts::3          397                       # Per bank write bursts
system.mem_ctrls.dram.perBankWrBursts::4          331                       # Per bank write bursts
system.mem_ctrls.dram.perBankWrBursts::5          370                       # Per bank write bursts
system.mem_ctrls.dram.perBankWrBursts::6          408                       # Per bank write bursts
system.mem_ctrls.dram.perBankWrBursts::7          396                       # Per bank write bursts
system.mem_ctrls.dram.perBankWrBursts::8          396                       # Per bank write bursts
system.mem_ctrls.dram.perBankWrBursts::9          403                       # Per bank write bursts
system.mem_ctrls.dram.perBankWrBursts::10          389                       # Per bank write bursts
system.mem_ctrls.dram.perBankWrBursts::11          366                       # Per bank write bursts
system.mem_ctrls.dram.perBankWrBursts::12          266                       # Per bank write bursts
system.mem_ctrls.dram.perBankWrBursts::13          297                       # Per bank write bursts
system.mem_ctrls.dram.perBankWrBursts::14          281                       # Per bank write bursts
system.mem_ctrls.dram.perBankWrBursts::15          280                       # Per bank write bursts
system.mem_ctrls.dram.totQLat               687633250                       # Total ticks spent queuing
system.mem_ctrls.dram.totBusLat             194160000                       # Total ticks spent in databus transfers
system.mem_ctrls.dram.totMemAccLat         1415733250                       # Total ticks spent from burst creation until serviced by the DRAM
system.mem_ctrls.dram.avgQLat                17707.90                       # Average queueing delay per DRAM burst
system.mem_ctrls.dram.avgBusLat               5000.00                       # Average bus latency per DRAM burst
system.mem_ctrls.dram.avgMemAccLat           36457.90                       # Average memory access latency per DRAM burst
system.mem_ctrls.dram.readRowHits               22046                       # Number of row buffer hits during reads
system.mem_ctrls.dram.writeRowHits               4710                       # Number of row buffer hits during writes
system.mem_ctrls.dram.readRowHitRate            56.77                       # Row buffer hit rate for reads
system.mem_ctrls.dram.writeRowHitRate           86.33                       # Row buffer hit rate for writes
system.mem_ctrls.dram.bytesPerActivate::samples        17532                       # Bytes accessed per row activation
system.mem_ctrls.dram.bytesPerActivate::mean   161.671914                       # Bytes accessed per row activation
system.mem_ctrls.dram.bytesPerActivate::gmean   122.263280                       # Bytes accessed per row activation
system.mem_ctrls.dram.bytesPerActivate::stdev   158.357738                       # Bytes accessed per row activation
system.mem_ctrls.dram.bytesPerActivate::0-127         6880     39.24%     39.24% # Bytes accessed per row activation
system.mem_ctrls.dram.bytesPerActivate::128-255         7501     42.78%     82.03% # Bytes accessed per row activation
system.mem_ctrls.dram.bytesPerActivate::256-383         1225      6.99%     89.01% # Bytes accessed per row activation
system.mem_ctrls.dram.bytesPerActivate::384-511         1054      6.01%     95.03% # Bytes accessed per row activation
system.mem_ctrls.dram.bytesPerActivate::512-639          502      2.86%     97.89% # Bytes accessed per row activation
system.mem_ctrls.dram.bytesPerActivate::640-767           93      0.53%     98.42% # Bytes accessed per row activation
system.mem_ctrls.dram.bytesPerActivate::768-895           33      0.19%     98.61% # Bytes accessed per row activation
system.mem_ctrls.dram.bytesPerActivate::896-1023           46      0.26%     98.87% # Bytes accessed per row activation
system.mem_ctrls.dram.bytesPerActivate::1024-1151          198      1.13%    100.00% # Bytes accessed per row activation
system.mem_ctrls.dram.bytesPerActivate::total        17532                       # Bytes accessed per row activation
system.mem_ctrls.dram.bytesRead               2485248                       # Total number of bytes read from DRAM
system.mem_ctrls.dram.bytesWritten             349184                       # Total number of bytes written to DRAM
system.mem_ctrls.dram.avgRdBW               22.779064                       # Average DRAM read bandwidth in MiBytes/s
system.mem_ctrls.dram.avgWrBW                3.200520                       # Average DRAM write bandwidth in MiBytes/s
system.mem_ctrls.dram.peakBW                 12800.00                       # Theoretical peak bandwidth in MiByte/s
system.mem_ctrls.dram.busUtil                    0.20                       # Data bus utilization in percentage
system.mem_ctrls.dram.busUtilRead                0.18                       # Data bus utilization in percentage for reads
system.mem_ctrls.dram.busUtilWrite               0.03                       # Data bus utilization in percentage for writes
system.mem_ctrls.dram.pageHitRate               60.41                       # Row buffer hit rate, read and write combined
system.mem_ctrls.dram.power_state.pwrStateResidencyTicks::UNDEFINED 109102286000                       # Cumulative time (in ticks) in various power states
system.mem_ctrls.dram.rank0.actEnergy        63274680                       # Energy for activate commands per rank (pJ)
system.mem_ctrls.dram.rank0.preEnergy        33631290                       # Energy for precharge commands per rank (pJ)
system.mem_ctrls.dram.rank0.readEnergy      139444200                       # Energy for read commands per rank (pJ)
system.mem_ctrls.dram.rank0.writeEnergy      14501160                       # Energy for write commands per rank (pJ)
system.mem_ctrls.dram.rank0.refreshEnergy 8612335680.000002                       # Energy for refresh commands per rank (pJ)
system.mem_ctrls.dram.rank0.actBackEnergy  20294349540                       # Energy for active background per rank (pJ)
system.mem_ctrls.dram.rank0.preBackEnergy  24805299360                       # Energy for precharge background per rank (pJ)
system.mem_ctrls.dram.rank0.actPowerDownEnergy            0                       # Energy for active power-down per rank (pJ)
system.mem_ctrls.dram.rank0.prePowerDownEnergy            0                       # Energy for precharge power-down per rank (pJ)
system.mem_ctrls.dram.rank0.selfRefreshEnergy            0                       # Energy for self refresh per rank (pJ)
system.mem_ctrls.dram.rank0.totalEnergy   53962835910                       # Total energy per rank (pJ)
system.mem_ctrls.dram.rank0.averagePower   494.607747                       # Core power per rank (mW)
system.mem_ctrls.dram.rank0.totalIdleTime            0                       # Total Idle time Per DRAM Rank
system.mem_ctrls.dram.rank0.pwrStateTime::IDLE  64297617000                       # Time in different power states
system.mem_ctrls.dram.rank0.pwrStateTime::REF   3643120000                       # Time in different power states
system.mem_ctrls.dram.rank0.pwrStateTime::SREF            0                       # Time in different power states
system.mem_ctrls.dram.rank0.pwrStateTime::PRE_PDN            0                       # Time in different power states
system.mem_ctrls.dram.rank0.pwrStateTime::ACT  41161549000                       # Time in different power states
system.mem_ctrls.dram.rank0.pwrStateTime::ACT_PDN            0                       # Time in different power states
system.mem_ctrls.dram.rank1.actEnergy        61903800                       # Energy for activate commands per rank (pJ)
system.mem_ctrls.dram.rank1.preEnergy        32902650                       # Energy for precharge commands per rank (pJ)
system.mem_ctrls.dram.rank1.readEnergy      137816280                       # Energy for read commands per rank (pJ)
system.mem_ctrls.dram.rank1.writeEnergy      13979160                       # Energy for write commands per rank (pJ)
system.mem_ctrls.dram.rank1.refreshEnergy 8612335680.000002                       # Energy for refresh commands per rank (pJ)
system.mem_ctrls.dram.rank1.actBackEnergy  20043242880                       # Energy for active background per rank (pJ)
system.mem_ctrls.dram.rank1.preBackEnergy  25016757600                       # Energy for precharge background per rank (pJ)
system.mem_ctrls.dram.rank1.actPowerDownEnergy            0                       # Energy for active power-down per rank (pJ)
system.mem_ctrls.dram.rank1.prePowerDownEnergy            0                       # Energy for precharge power-down per rank (pJ)
system.mem_ctrls.dram.rank1.selfRefreshEnergy            0                       # Energy for self refresh per rank (pJ)
system.mem_ctrls.dram.rank1.totalEnergy   53918938050                       # Total energy per rank (pJ)
system.mem_ctrls.dram.rank1.averagePower   494.205392                       # Core power per rank (mW)
system.mem_ctrls.dram.rank1.totalIdleTime            0                       # Total Idle time Per DRAM Rank
system.mem_ctrls.dram.rank1.pwrStateTime::IDLE  64850192000                       # Time in different power states
system.mem_ctrls.dram.rank1.pwrStateTime::REF   3643120000                       # Time in different power states
system.mem_ctrls.dram.rank1.pwrStateTime::SREF            0                       # Time in different power states
system.mem_ctrls.dram.rank1.pwrStateTime::PRE_PDN            0                       # Time in different power states
system.mem_ctrls.dram.rank1.pwrStateTime::ACT  40608974000                       # Time in different power states
system.mem_ctrls.dram.rank1.pwrStateTime::ACT_PDN            0                       # Time in different power states
system.mem_ctrls.power_state.pwrStateResidencyTicks::UNDEFINED 109102286000                       # Cumulative time (in ticks) in various power states
system.membus.trans_dist::ReadResp                894                       # Transaction distribution
system.membus.trans_dist::WritebackDirty         5478                       # Transaction distribution
system.membus.trans_dist::CleanEvict               50                       # Transaction distribution
system.membus.trans_dist::ReadExReq             37940                       # Transaction distribution
system.membus.trans_dist::ReadExResp            37940                       # Transaction distribution
system.membus.trans_dist::ReadSharedReq           894                       # Transaction distribution
system.membus.pkt_count_system.l2.mem_side_port::system.mem_ctrls.port        83196                       # Packet count per connected requestor and responder (bytes)
system.membus.pkt_count::total                  83196                       # Packet count per connected requestor and responder (bytes)
system.membus.pkt_size_system.l2.mem_side_port::system.mem_ctrls.port      2835968                       # Cumulative packet size per connected requestor and responder (bytes)
system.membus.pkt_size::total                 2835968                       # Cumulative packet size per connected requestor and responder (bytes)
system.membus.snoops                                0                       # Total snoops (count)
system.membus.snoopTraffic                          0                       # Total snoop traffic (bytes)
system.membus.snoop_fanout::samples             38834                       # Request fanout histogram
system.membus.snoop_fanout::mean                    0                       # Request fanout histogram
system.membus.snoop_fanout::stdev                   0                       # Request fanout histogram
system.membus.snoop_fanout::underflows              0      0.00%      0.00% # Request fanout histogram
system.membus.snoop_fanout::0                   38834    100.00%    100.00% # Request fanout histogram
system.membus.snoop_fanout::1                       0      0.00%    100.00% # Request fanout histogram
system.membus.snoop_fanout::overflows               0      0.00%    100.00% # Request fanout histogram
system.membus.snoop_fanout::min_value               0                       # Request fanout histogram
system.membus.snoop_fanout::max_value               0                       # Request fanout histogram
system.membus.snoop_fanout::total               38834                       # Request fanout histogram
system.membus.power_state.pwrStateResidencyTicks::UNDEFINED 109102286000                       # Cumulative time (in ticks) in various power states
system.membus.reqLayer0.occupancy            66274000                       # Layer occupancy (ticks)
system.membus.reqLayer0.utilization               0.1                       # Layer utilization (%)
system.membus.respLayer1.occupancy          207785750                       # Layer occupancy (ticks)
system.membus.respLayer1.utilization              0.2                       # Layer utilization (%)
system.tol2bus.trans_dist::ReadResp             11695                       # Transaction distribution
system.tol2bus.trans_dist::WritebackDirty        51152                       # Transaction distribution
system.tol2bus.trans_dist::CleanEvict            2025                       # Transaction distribution
system.tol2bus.trans_dist::ReadExReq            37949                       # Transaction distribution
system.tol2bus.trans_dist::ReadExResp           37949                       # Transaction distribution
system.tol2bus.trans_dist::ReadCleanReq           515                       # Transaction distribution
system.tol2bus.trans_dist::ReadSharedReq        11180                       # Transaction distribution
system.tol2bus.pkt_count_system.cpu.icache.mem_side_port::system.l2.cpu_side_port         1030                       # Packet count per connected requestor and responder (bytes)
system.tol2bus.pkt_count_system.cpu.dcache.mem_side_port::system.l2.cpu_side_port       145339                       # Packet count per connected requestor and responder (bytes)
system.tol2bus.pkt_count::total                146369                       # Packet count per connected requestor and responder (bytes)
system.tol2bus.pkt_size_system.cpu.icache.mem_side_port::system.l2.cpu_side_port        32960                       # Cumulative packet size per connected requestor and responder (bytes)
system.tol2bus.pkt_size_system.cpu.dcache.mem_side_port::system.l2.cpu_side_port      6067392                       # Cumulative packet size per connected requestor and responder (bytes)
system.tol2bus.pkt_size::total                6100352                       # Cumulative packet size per connected requestor and responder (bytes)
system.tol2bus.snoops                            6096                       # Total snoops (count)
system.tol2bus.snoopTraffic                    350592                       # Total snoop traffic (bytes)
system.tol2bus.snoop_fanout::samples            55740                       # Request fanout histogram
system.tol2bus.snoop_fanout::mean            0.010585                       # Request fanout histogram
system.tol2bus.snoop_fanout::stdev           0.102688                       # Request fanout histogram
system.tol2bus.snoop_fanout::underflows             0      0.00%      0.00% # Request fanout histogram
system.tol2bus.snoop_fanout::0                  55152     98.95%     98.95% # Request fanout histogram
system.tol2bus.snoop_fanout::1                    586      1.05%    100.00% # Request fanout histogram
system.tol2bus.snoop_fanout::2                      2      0.00%    100.00% # Request fanout histogram
system.tol2bus.snoop_fanout::overflows              0      0.00%    100.00% # Request fanout histogram
system.tol2bus.snoop_fanout::min_value              0                       # Request fanout histogram
system.tol2bus.snoop_fanout::max_value              2                       # Request fanout histogram
system.tol2bus.snoop_fanout::total              55740                       # Request fanout histogram
system.tol2bus.power_state.pwrStateResidencyTicks::UNDEFINED 109102286000                       # Cumulative time (in ticks) in various power states
system.tol2bus.reqLayer0.occupancy          188073000                       # Layer occupancy (ticks)
system.tol2bus.reqLayer0.utilization              0.2                       # Layer utilization (%)
system.tol2bus.respLayer0.occupancy           1545000                       # Layer occupancy (ticks)
system.tol2bus.respLayer0.utilization             0.0                       # Layer utilization (%)
system.tol2bus.respLayer1.occupancy         147387999                       # Layer occupancy (ticks)
system.tol2bus.respLayer1.utilization             0.1                       # Layer utilization (%)
system.voltage_domain.voltage                       1                       # Voltage in Volts

---------- End Simulation Statistics   ----------
