
---------- Begin Simulation Statistics ----------
final_tick                               705653005000                       # Number of ticks from beginning of simulation (restored from checkpoints and never reset)
host_inst_rate                                 121739                       # Simulator instruction rate (inst/s)
host_mem_usage                                 713312                       # Number of bytes of host memory used
host_op_rate                                   224269                       # Simulator op (including micro ops) rate (op/s)
host_seconds                                   821.43                       # Real time elapsed on the host
host_tick_rate                              859057983                       # Simulator tick rate (ticks/s)
sim_freq                                 1000000000000                       # Frequency of simulated ticks
sim_insts                                   100000000                       # Number of instructions simulated
sim_ops                                     184220346                       # Number of ops (including micro ops) simulated
sim_seconds                                  0.705653                       # Number of seconds simulated
sim_ticks                                705653005000                       # Number of ticks simulated
system.cpu.committedInsts                   100000000                       # Number of instructions committed
system.cpu.committedOps                     184220346                       # Number of ops (including micro ops) committed
system.cpu.cpi                               7.056530                       # CPI: cycles per instruction
system.cpu.discardedOps                          4309                       # Number of ops (including micro ops) which were discarded before commit
system.cpu.idleCycles                       483958147                       # Total number of cycles that the object has spent stopped
system.cpu.ipc                               0.141713                       # IPC: instructions per cycle
system.cpu.numCycles                        705653005                       # number of cpu cycles simulated
system.cpu.numFetchSuspends                         0                       # Number of times Execute suspended instruction fetching
system.cpu.numWorkItemsCompleted                    0                       # number of work items this cpu completed
system.cpu.numWorkItemsStarted                      0                       # number of work items this cpu started
system.cpu.op_class_0::No_OpClass                   0      0.00%      0.00% # Class of committed instruction
system.cpu.op_class_0::IntAlu                97640466     53.00%     53.00% # Class of committed instruction
system.cpu.op_class_0::IntMult                 114699      0.06%     53.06% # Class of committed instruction
system.cpu.op_class_0::IntDiv                       0      0.00%     53.06% # Class of committed instruction
system.cpu.op_class_0::FloatAdd                     0      0.00%     53.06% # Class of committed instruction
system.cpu.op_class_0::FloatCmp                     0      0.00%     53.06% # Class of committed instruction
system.cpu.op_class_0::FloatCvt                     0      0.00%     53.06% # Class of committed instruction
system.cpu.op_class_0::FloatMult                    0      0.00%     53.06% # Class of committed instruction
system.cpu.op_class_0::FloatMultAcc                 0      0.00%     53.06% # Class of committed instruction
system.cpu.op_class_0::FloatDiv                     0      0.00%     53.06% # Class of committed instruction
system.cpu.op_class_0::FloatMisc                    0      0.00%     53.06% # Class of committed instruction
system.cpu.op_class_0::FloatSqrt                    0      0.00%     53.06% # Class of committed instruction
system.cpu.op_class_0::SimdAdd                      8      0.00%     53.06% # Class of committed instruction
system.cpu.op_class_0::SimdAddAcc                   0      0.00%     53.06% # Class of committed instruction
system.cpu.op_class_0::SimdAlu                      8      0.00%     53.06% # Class of committed instruction
system.cpu.op_class_0::SimdCmp                      6      0.00%     53.06% # Class of committed instruction
system.cpu.op_class_0::SimdCvt                      0      0.00%     53.06% # Class of committed instruction
system.cpu.op_class_0::SimdMisc                     1      0.00%     53.06% # Class of committed instruction
system.cpu.op_class_0::SimdMult                     0      0.00%     53.06% # Class of committed instruction
system.cpu.op_class_0::SimdMultAcc                  0      0.00%     53.06% # Class of committed instruction
system.cpu.op_class_0::SimdShift                    0      0.00%     53.06% # Class of committed instruction
system.cpu.op_class_0::SimdShiftAcc                 0      0.00%     53.06% # Class of committed instruction
system.cpu.op_class_0::SimdDiv                      0      0.00%     53.06% # Class of committed instruction
system.cpu.op_class_0::SimdSqrt                     0      0.00%     53.06% # Class of committed instruction
system.cpu.op_class_0::SimdFloatAdd                 0      0.00%     53.06% # Class of committed instruction
system.cpu.op_class_0::SimdFloatAlu                 0      0.00%     53.06% # Class of committed instruction
system.cpu.op_class_0::SimdFloatCmp                 0      0.00%     53.06% # Class of committed instruction
system.cpu.op_class_0::SimdFloatCvt                 0      0.00%     53.06% # Class of committed instruction
system.cpu.op_class_0::SimdFloatDiv                 0      0.00%     53.06% # Class of committed instruction
system.cpu.op_class_0::SimdFloatMisc                6      0.00%     53.06% # Class of committed instruction
system.cpu.op_class_0::SimdFloatMult                0      0.00%     53.06% # Class of committed instruction
system.cpu.op_class_0::SimdFloatMultAcc             0      0.00%     53.06% # Class of committed instruction
system.cpu.op_class_0::SimdFloatSqrt                0      0.00%     53.06% # Class of committed instruction
system.cpu.op_class_0::SimdReduceAdd                0      0.00%     53.06% # Class of committed instruction
system.cpu.op_class_0::SimdReduceAlu                0      0.00%     53.06% # Class of committed instruction
system.cpu.op_class_0::SimdReduceCmp                0      0.00%     53.06% # Class of committed instruction
system.cpu.op_class_0::SimdFloatReduceAdd            0      0.00%     53.06% # Class of committed instruction
system.cpu.op_class_0::SimdFloatReduceCmp            0      0.00%     53.06% # Class of committed instruction
system.cpu.op_class_0::SimdAes                      0      0.00%     53.06% # Class of committed instruction
system.cpu.op_class_0::SimdAesMix                   0      0.00%     53.06% # Class of committed instruction
system.cpu.op_class_0::SimdSha1Hash                 0      0.00%     53.06% # Class of committed instruction
system.cpu.op_class_0::SimdSha1Hash2                0      0.00%     53.06% # Class of committed instruction
system.cpu.op_class_0::SimdSha256Hash               0      0.00%     53.06% # Class of committed instruction
system.cpu.op_class_0::SimdSha256Hash2              0      0.00%     53.06% # Class of committed instruction
system.cpu.op_class_0::SimdShaSigma2                0      0.00%     53.06% # Class of committed instruction
system.cpu.op_class_0::SimdShaSigma3                0      0.00%     53.06% # Class of committed instruction
system.cpu.op_class_0::SimdPredAlu                  0      0.00%     53.06% # Class of committed instruction
system.cpu.op_class_0::MemRead                2082588      1.13%     54.19% # Class of committed instruction
system.cpu.op_class_0::MemWrite              84382564     45.81%    100.00% # Class of committed instruction
system.cpu.op_class_0::FloatMemRead                 0      0.00%    100.00% # Class of committed instruction
system.cpu.op_class_0::FloatMemWrite                0      0.00%    100.00% # Class of committed instruction
system.cpu.op_class_0::IprAccess                    0      0.00%    100.00% # Class of committed instruction
system.cpu.op_class_0::InstPrefetch                 0      0.00%    100.00% # Class of committed instruction
system.cpu.op_class_0::total                184220346                       # Class of committed instruction
system.cpu.tickCycles                       221694858                       # Number of cycles that the object actually ticked
system.cpu.workload.numSyscalls                    19                       # Number of system calls
system.membus.snoop_filter.hit_multi_requests            0                       # Number of requests hitting in the snoop filter with multiple (>1) holders of the requested data.
system.membus.snoop_filter.hit_multi_snoops            0                       # Number of snoops hitting in the snoop filter with multiple (>1) holders of the requested data.
system.membus.snoop_filter.hit_single_requests      5255138                       # Number of requests hitting in the snoop filter with a single holder of the requested data.
system.membus.snoop_filter.hit_single_snoops            0                       # Number of snoops hitting in the snoop filter with a single holder of the requested data.
system.membus.snoop_filter.tot_requests      10518967                       # Total number of requests made to the snoop filter.
system.membus.snoop_filter.tot_snoops               0                       # Total number of snoops made to the snoop filter.
system.tol2bus.snoop_filter.hit_multi_requests          520                       # Number of requests hitting in the snoop filter with multiple (>1) holders of the requested data.
system.tol2bus.snoop_filter.hit_multi_snoops            0                       # Number of snoops hitting in the snoop filter with multiple (>1) holders of the requested data.
system.tol2bus.snoop_filter.hit_single_requests      5269967                       # Number of requests hitting in the snoop filter with a single holder of the requested data.
system.tol2bus.snoop_filter.hit_single_snoops          556                       # Number of snoops hitting in the snoop filter with a single holder of the requested data.
system.tol2bus.snoop_filter.tot_requests     10540956                       # Total number of requests made to the snoop filter.
system.tol2bus.snoop_filter.tot_snoops            556                       # Total number of snoops made to the snoop filter.
system.clk_domain.clock                          1000                       # Clock period in ticks
system.cpu.branchPred.lookups                10658357                       # Number of BP lookups
system.cpu.branchPred.condPredicted          10650099                       # Number of conditional branches predicted
system.cpu.branchPred.condIncorrect              1446                       # Number of conditional branches incorrect
system.cpu.branchPred.BTBLookups             10650398                       # Number of BTB lookups
system.cpu.branchPred.BTBHits                10649077                       # Number of BTB hits
system.cpu.branchPred.BTBHitPct             99.987597                       # BTB Hit Percentage
system.cpu.branchPred.RASUsed                    2703                       # Number of times the RAS was used to get a target.
system.cpu.branchPred.RASIncorrect                  2                       # Number of incorrect RAS predictions.
system.cpu.branchPred.indirectLookups             194                       # Number of indirect predictor lookups.
system.cpu.branchPred.indirectHits                 22                       # Number of indirect target hits.
system.cpu.branchPred.indirectMisses              172                       # Number of indirect misses.
system.cpu.branchPred.indirectMispredicted          105                       # Number of mispredicted indirect branches.
system.cpu.dcache.demand_hits::.cpu.data     75851093                       # number of demand (read+write) hits
system.cpu.dcache.demand_hits::total         75851093                       # number of demand (read+write) hits
system.cpu.dcache.overall_hits::.cpu.data     75851125                       # number of overall hits
system.cpu.dcache.overall_hits::total        75851125                       # number of overall hits
system.cpu.dcache.demand_misses::.cpu.data     10530939                       # number of demand (read+write) misses
system.cpu.dcache.demand_misses::total       10530939                       # number of demand (read+write) misses
system.cpu.dcache.overall_misses::.cpu.data     10530978                       # number of overall misses
system.cpu.dcache.overall_misses::total      10530978                       # number of overall misses
system.cpu.dcache.demand_miss_latency::.cpu.data 1109563551000                       # number of demand (read+write) miss cycles
system.cpu.dcache.demand_miss_latency::total 1109563551000                       # number of demand (read+write) miss cycles
system.cpu.dcache.overall_miss_latency::.cpu.data 1109563551000                       # number of overall miss cycles
system.cpu.dcache.overall_miss_latency::total 1109563551000                       # number of overall miss cycles
system.cpu.dcache.demand_accesses::.cpu.data     86382032                       # number of demand (read+write) accesses
system.cpu.dcache.demand_accesses::total     86382032                       # number of demand (read+write) accesses
system.cpu.dcache.overall_accesses::.cpu.data     86382103                       # number of overall (read+write) accesses
system.cpu.dcache.overall_accesses::total     86382103                       # number of overall (read+write) accesses
system.cpu.dcache.demand_miss_rate::.cpu.data     0.121911                       # miss rate for demand accesses
system.cpu.dcache.demand_miss_rate::total     0.121911                       # miss rate for demand accesses
system.cpu.dcache.overall_miss_rate::.cpu.data     0.121912                       # miss rate for overall accesses
system.cpu.dcache.overall_miss_rate::total     0.121912                       # miss rate for overall accesses
system.cpu.dcache.demand_avg_miss_latency::.cpu.data 105362.261713                       # average overall miss latency
system.cpu.dcache.demand_avg_miss_latency::total 105362.261713                       # average overall miss latency
system.cpu.dcache.overall_avg_miss_latency::.cpu.data 105361.871518                       # average overall miss latency
system.cpu.dcache.overall_avg_miss_latency::total 105361.871518                       # average overall miss latency
system.cpu.dcache.blocked_cycles::no_mshrs          147                       # number of cycles access was blocked
system.cpu.dcache.blocked_cycles::no_targets            0                       # number of cycles access was blocked
system.cpu.dcache.blocked::no_mshrs                 3                       # number of cycles access was blocked
system.cpu.dcache.blocked::no_targets               0                       # number of cycles access was blocked
system.cpu.dcache.avg_blocked_cycles::no_mshrs           49                       # average number of cycles each access was blocked
system.cpu.dcache.avg_blocked_cycles::no_targets          nan                       # average number of cycles each access was blocked
system.cpu.dcache.writebacks::.writebacks      5266460                       # number of writebacks
system.cpu.dcache.writebacks::total           5266460                       # number of writebacks
system.cpu.dcache.demand_mshr_hits::.cpu.data      5260631                       # number of demand (read+write) MSHR hits
system.cpu.dcache.demand_mshr_hits::total      5260631                       # number of demand (read+write) MSHR hits
system.cpu.dcache.overall_mshr_hits::.cpu.data      5260631                       # number of overall MSHR hits
system.cpu.dcache.overall_mshr_hits::total      5260631                       # number of overall MSHR hits
system.cpu.dcache.demand_mshr_misses::.cpu.data      5270308                       # number of demand (read+write) MSHR misses
system.cpu.dcache.demand_mshr_misses::total      5270308                       # number of demand (read+write) MSHR misses
system.cpu.dcache.overall_mshr_misses::.cpu.data      5270342                       # number of overall MSHR misses
system.cpu.dcache.overall_mshr_misses::total      5270342                       # number of overall MSHR misses
system.cpu.dcache.demand_mshr_miss_latency::.cpu.data 541864882000                       # number of demand (read+write) MSHR miss cycles
system.cpu.dcache.demand_mshr_miss_latency::total 541864882000                       # number of demand (read+write) MSHR miss cycles
system.cpu.dcache.overall_mshr_miss_latency::.cpu.data 541868519000                       # number of overall MSHR miss cycles
system.cpu.dcache.overall_mshr_miss_latency::total 541868519000                       # number of overall MSHR miss cycles
system.cpu.dcache.demand_mshr_miss_rate::.cpu.data     0.061012                       # mshr miss rate for demand accesses
system.cpu.dcache.demand_mshr_miss_rate::total     0.061012                       # mshr miss rate for demand accesses
system.cpu.dcache.overall_mshr_miss_rate::.cpu.data     0.061012                       # mshr miss rate for overall accesses
system.cpu.dcache.overall_mshr_miss_rate::total     0.061012                       # mshr miss rate for overall accesses
system.cpu.dcache.demand_avg_mshr_miss_latency::.cpu.data 102814.651819                       # average overall mshr miss latency
system.cpu.dcache.demand_avg_mshr_miss_latency::total 102814.651819                       # average overall mshr miss latency
system.cpu.dcache.overall_avg_mshr_miss_latency::.cpu.data 102814.678630                       # average overall mshr miss latency
system.cpu.dcache.overall_avg_mshr_miss_latency::total 102814.678630                       # average overall mshr miss latency
system.cpu.dcache.replacements                5269831                       # number of replacements
system.cpu.dcache.ReadReq_hits::.cpu.data      2039805                       # number of ReadReq hits
system.cpu.dcache.ReadReq_hits::total         2039805                       # number of ReadReq hits
system.cpu.dcache.ReadReq_misses::.cpu.data         3967                       # number of ReadReq misses
system.cpu.dcache.ReadReq_misses::total          3967                       # number of ReadReq misses
system.cpu.dcache.ReadReq_miss_latency::.cpu.data    133132000                       # number of ReadReq miss cycles
system.cpu.dcache.ReadReq_miss_latency::total    133132000                       # number of ReadReq miss cycles
system.cpu.dcache.ReadReq_accesses::.cpu.data      2043772                       # number of ReadReq accesses(hits+misses)
system.cpu.dcache.ReadReq_accesses::total      2043772                       # number of ReadReq accesses(hits+misses)
system.cpu.dcache.ReadReq_miss_rate::.cpu.data     0.001941                       # miss rate for ReadReq accesses
system.cpu.dcache.ReadReq_miss_rate::total     0.001941                       # miss rate for ReadReq accesses
system.cpu.dcache.ReadReq_avg_miss_latency::.cpu.data 33559.868919                       # average ReadReq miss latency
system.cpu.dcache.ReadReq_avg_miss_latency::total 33559.868919                       # average ReadReq miss latency
system.cpu.dcache.ReadReq_mshr_hits::.cpu.data           37                       # number of ReadReq MSHR hits
system.cpu.dcache.ReadReq_mshr_hits::total           37                       # number of ReadReq MSHR hits
system.cpu.dcache.ReadReq_mshr_misses::.cpu.data         3930                       # number of ReadReq MSHR misses
system.cpu.dcache.ReadReq_mshr_misses::total         3930                       # number of ReadReq MSHR misses
system.cpu.dcache.ReadReq_mshr_miss_latency::.cpu.data    122363000                       # number of ReadReq MSHR miss cycles
system.cpu.dcache.ReadReq_mshr_miss_latency::total    122363000                       # number of ReadReq MSHR miss cycles
system.cpu.dcache.ReadReq_mshr_miss_rate::.cpu.data     0.001923                       # mshr miss rate for ReadReq accesses
system.cpu.dcache.ReadReq_mshr_miss_rate::total     0.001923                       # mshr miss rate for ReadReq accesses
system.cpu.dcache.ReadReq_avg_mshr_miss_latency::.cpu.data 31135.623410                       # average ReadReq mshr miss latency
system.cpu.dcache.ReadReq_avg_mshr_miss_latency::total 31135.623410                       # average ReadReq mshr miss latency
system.cpu.dcache.WriteReq_hits::.cpu.data     73811288                       # number of WriteReq hits
system.cpu.dcache.WriteReq_hits::total       73811288                       # number of WriteReq hits
system.cpu.dcache.WriteReq_misses::.cpu.data     10526972                       # number of WriteReq misses
system.cpu.dcache.WriteReq_misses::total     10526972                       # number of WriteReq misses
system.cpu.dcache.WriteReq_miss_latency::.cpu.data 1109430419000                       # number of WriteReq miss cycles
system.cpu.dcache.WriteReq_miss_latency::total 1109430419000                       # number of WriteReq miss cycles
system.cpu.dcache.WriteReq_accesses::.cpu.data     84338260                       # number of WriteReq accesses(hits+misses)
system.cpu.dcache.WriteReq_accesses::total     84338260                       # number of WriteReq accesses(hits+misses)
system.cpu.dcache.WriteReq_miss_rate::.cpu.data     0.124818                       # miss rate for WriteReq accesses
system.cpu.dcache.WriteReq_miss_rate::total     0.124818                       # miss rate for WriteReq accesses
system.cpu.dcache.WriteReq_avg_miss_latency::.cpu.data 105389.319835                       # average WriteReq miss latency
system.cpu.dcache.WriteReq_avg_miss_latency::total 105389.319835                       # average WriteReq miss latency
system.cpu.dcache.WriteReq_mshr_hits::.cpu.data      5260594                       # number of WriteReq MSHR hits
system.cpu.dcache.WriteReq_mshr_hits::total      5260594                       # number of WriteReq MSHR hits
system.cpu.dcache.WriteReq_mshr_misses::.cpu.data      5266378                       # number of WriteReq MSHR misses
system.cpu.dcache.WriteReq_mshr_misses::total      5266378                       # number of WriteReq MSHR misses
system.cpu.dcache.WriteReq_mshr_miss_latency::.cpu.data 541742519000                       # number of WriteReq MSHR miss cycles
system.cpu.dcache.WriteReq_mshr_miss_latency::total 541742519000                       # number of WriteReq MSHR miss cycles
system.cpu.dcache.WriteReq_mshr_miss_rate::.cpu.data     0.062444                       # mshr miss rate for WriteReq accesses
system.cpu.dcache.WriteReq_mshr_miss_rate::total     0.062444                       # mshr miss rate for WriteReq accesses
system.cpu.dcache.WriteReq_avg_mshr_miss_latency::.cpu.data 102868.141823                       # average WriteReq mshr miss latency
system.cpu.dcache.WriteReq_avg_mshr_miss_latency::total 102868.141823                       # average WriteReq mshr miss latency
system.cpu.dcache.SoftPFReq_hits::.cpu.data           32                       # number of SoftPFReq hits
system.cpu.dcache.SoftPFReq_hits::total            32                       # number of SoftPFReq hits
system.cpu.dcache.SoftPFReq_misses::.cpu.data           39                       # number of SoftPFReq misses
system.cpu.dcache.SoftPFReq_misses::total           39                       # number of SoftPFReq misses
system.cpu.dcache.SoftPFReq_accesses::.cpu.data           71                       # number of SoftPFReq accesses(hits+misses)
system.cpu.dcache.SoftPFReq_accesses::total           71                       # number of SoftPFReq accesses(hits+misses)
system.cpu.dcache.SoftPFReq_miss_rate::.cpu.data     0.549296                       # miss rate for SoftPFReq accesses
system.cpu.dcache.SoftPFReq_miss_rate::total     0.549296                       # miss rate for SoftPFReq accesses
system.cpu.dcache.SoftPFReq_mshr_misses::.cpu.data           34                       # number of SoftPFReq MSHR misses
system.cpu.dcache.SoftPFReq_mshr_misses::total           34                       # number of SoftPFReq MSHR misses
system.cpu.dcache.SoftPFReq_mshr_miss_latency::.cpu.data      3637000                       # number of SoftPFReq MSHR miss cycles
system.cpu.dcache.SoftPFReq_mshr_miss_latency::total      3637000                       # number of SoftPFReq MSHR miss cycles
system.cpu.dcache.SoftPFReq_mshr_miss_rate::.cpu.data     0.478873                       # mshr miss rate for SoftPFReq accesses
system.cpu.dcache.SoftPFReq_mshr_miss_rate::total     0.478873                       # mshr miss rate for SoftPFReq accesses
system.cpu.dcache.SoftPFReq_avg_mshr_miss_latency::.cpu.data 106970.588235                       # average SoftPFReq mshr miss latency
system.cpu.dcache.SoftPFReq_avg_mshr_miss_latency::total 106970.588235                       # average SoftPFReq mshr miss latency
system.cpu.dcache.LoadLockedReq_hits::.cpu.data           33                       # number of LoadLockedReq hits
system.cpu.dcache.LoadLockedReq_hits::total           33                       # number of LoadLockedReq hits
system.cpu.dcache.LoadLockedReq_misses::.cpu.data            1                       # number of LoadLockedReq misses
system.cpu.dcache.LoadLockedReq_misses::total            1                       # number of LoadLockedReq misses
system.cpu.dcache.LoadLockedReq_miss_latency::.cpu.data       123000                       # number of LoadLockedReq miss cycles
system.cpu.dcache.LoadLockedReq_miss_latency::total       123000                       # number of LoadLockedReq miss cycles
system.cpu.dcache.LoadLockedReq_accesses::.cpu.data           34                       # number of LoadLockedReq accesses(hits+misses)
system.cpu.dcache.LoadLockedReq_accesses::total           34                       # number of LoadLockedReq accesses(hits+misses)
system.cpu.dcache.LoadLockedReq_miss_rate::.cpu.data     0.029412                       # miss rate for LoadLockedReq accesses
system.cpu.dcache.LoadLockedReq_miss_rate::total     0.029412                       # miss rate for LoadLockedReq accesses
system.cpu.dcache.LoadLockedReq_avg_miss_latency::.cpu.data       123000                       # average LoadLockedReq miss latency
system.cpu.dcache.LoadLockedReq_avg_miss_latency::total       123000                       # average LoadLockedReq miss latency
system.cpu.dcache.LoadLockedReq_mshr_misses::.cpu.data            1                       # number of LoadLockedReq MSHR misses
system.cpu.dcache.LoadLockedReq_mshr_misses::total            1                       # number of LoadLockedReq MSHR misses
system.cpu.dcache.LoadLockedReq_mshr_miss_latency::.cpu.data       121000                       # number of LoadLockedReq MSHR miss cycles
system.cpu.dcache.LoadLockedReq_mshr_miss_latency::total       121000                       # number of LoadLockedReq MSHR miss cycles
system.cpu.dcache.LoadLockedReq_mshr_miss_rate::.cpu.data     0.029412                       # mshr miss rate for LoadLockedReq accesses
system.cpu.dcache.LoadLockedReq_mshr_miss_rate::total     0.029412                       # mshr miss rate for LoadLockedReq accesses
system.cpu.dcache.LoadLockedReq_avg_mshr_miss_latency::.cpu.data       121000                       # average LoadLockedReq mshr miss latency
system.cpu.dcache.LoadLockedReq_avg_mshr_miss_latency::total       121000                       # average LoadLockedReq mshr miss latency
system.cpu.dcache.StoreCondReq_hits::.cpu.data           34                       # number of StoreCondReq hits
system.cpu.dcache.StoreCondReq_hits::total           34                       # number of StoreCondReq hits
system.cpu.dcache.StoreCondReq_accesses::.cpu.data           34                       # number of StoreCondReq accesses(hits+misses)
system.cpu.dcache.StoreCondReq_accesses::total           34                       # number of StoreCondReq accesses(hits+misses)
system.cpu.dcache.power_state.pwrStateResidencyTicks::UNDEFINED 705653005000                       # Cumulative time (in ticks) in various power states
system.cpu.dcache.tags.tagsinuse           511.851061                       # Cycle average of tags in use
system.cpu.dcache.tags.total_refs            81121535                       # Total number of references to valid blocks.
system.cpu.dcache.tags.sampled_refs           5270343                       # Sample count of references to valid blocks.
system.cpu.dcache.tags.avg_refs             15.392079                       # Average number of references to valid blocks.
system.cpu.dcache.tags.warmup_cycle            223000                       # Cycle when the warmup percentage was hit.
system.cpu.dcache.tags.occ_blocks::.cpu.data   511.851061                       # Average occupied blocks per requestor
system.cpu.dcache.tags.occ_percent::.cpu.data     0.999709                       # Average percentage of cache occupancy
system.cpu.dcache.tags.occ_percent::total     0.999709                       # Average percentage of cache occupancy
system.cpu.dcache.tags.occ_task_id_blocks::1024          512                       # Occupied blocks per task id
system.cpu.dcache.tags.age_task_id_blocks_1024::0           75                       # Occupied blocks per task id
system.cpu.dcache.tags.age_task_id_blocks_1024::1          437                       # Occupied blocks per task id
system.cpu.dcache.tags.occ_task_id_percent::1024            1                       # Percentage of cache occupancy per task id
system.cpu.dcache.tags.tag_accesses          91652514                       # Number of tag accesses
system.cpu.dcache.tags.data_accesses         91652514                       # Number of data accesses
system.cpu.dcache.tags.power_state.pwrStateResidencyTicks::UNDEFINED 705653005000                       # Cumulative time (in ticks) in various power states
system.cpu.dtb.instHits                             0                       # ITB inst hits
system.cpu.dtb.instMisses                           0                       # ITB inst misses
system.cpu.dtb.readHits                             0                       # DTB read hits
system.cpu.dtb.readMisses                           0                       # DTB read misses
system.cpu.dtb.writeHits                            0                       # DTB write hits
system.cpu.dtb.writeMisses                          0                       # DTB write misses
system.cpu.dtb.inserts                              0                       # Number of times an entry is inserted into the TLB
system.cpu.dtb.flushTlb                             0                       # Number of times complete TLB was flushed
system.cpu.dtb.flushTlbMva                          0                       # Number of times TLB was flushed by MVA
system.cpu.dtb.flushTlbMvaAsid                      0                       # Number of times TLB was flushed by MVA & ASID
system.cpu.dtb.flushTlbAsid                         0                       # Number of times TLB was flushed by ASID
system.cpu.dtb.flushedEntries                       0                       # Number of entries that have been flushed from TLB
system.cpu.dtb.alignFaults                          0                       # Number of TLB faults due to alignment restrictions
system.cpu.dtb.prefetchFaults                       0                       # Number of TLB faults due to prefetch
system.cpu.dtb.domainFaults                         0                       # Number of TLB faults due to domain restrictions
system.cpu.dtb.permsFaults                          0                       # Number of TLB faults due to permissions restrictions
system.cpu.dtb.readAccesses                         0                       # DTB read accesses
system.cpu.dtb.writeAccesses                        0                       # DTB write accesses
system.cpu.dtb.instAccesses                         0                       # ITB inst accesses
system.cpu.dtb.hits                                 0                       # Total TLB (inst and data) hits
system.cpu.dtb.misses                               0                       # Total TLB (inst and data) misses
system.cpu.dtb.accesses                             0                       # Total TLB (inst and data) accesses
system.cpu.dtb.stage2_mmu.stage2_tlb.instHits            0                       # ITB inst hits
system.cpu.dtb.stage2_mmu.stage2_tlb.instMisses            0                       # ITB inst misses
system.cpu.dtb.stage2_mmu.stage2_tlb.readHits            0                       # DTB read hits
system.cpu.dtb.stage2_mmu.stage2_tlb.readMisses            0                       # DTB read misses
system.cpu.dtb.stage2_mmu.stage2_tlb.writeHits            0                       # DTB write hits
system.cpu.dtb.stage2_mmu.stage2_tlb.writeMisses            0                       # DTB write misses
system.cpu.dtb.stage2_mmu.stage2_tlb.inserts            0                       # Number of times an entry is inserted into the TLB
system.cpu.dtb.stage2_mmu.stage2_tlb.flushTlb            0                       # Number of times complete TLB was flushed
system.cpu.dtb.stage2_mmu.stage2_tlb.flushTlbMva            0                       # Number of times TLB was flushed by MVA
system.cpu.dtb.stage2_mmu.stage2_tlb.flushTlbMvaAsid            0                       # Number of times TLB was flushed by MVA & ASID
system.cpu.dtb.stage2_mmu.stage2_tlb.flushTlbAsid            0                       # Number of times TLB was flushed by ASID
system.cpu.dtb.stage2_mmu.stage2_tlb.flushedEntries            0                       # Number of entries that have been flushed from TLB
system.cpu.dtb.stage2_mmu.stage2_tlb.alignFaults            0                       # Number of TLB faults due to alignment restrictions
system.cpu.dtb.stage2_mmu.stage2_tlb.prefetchFaults            0                       # Number of TLB faults due to prefetch
system.cpu.dtb.stage2_mmu.stage2_tlb.domainFaults            0                       # Number of TLB faults due to domain restrictions
system.cpu.dtb.stage2_mmu.stage2_tlb.permsFaults            0                       # Number of TLB faults due to permissions restrictions
system.cpu.dtb.stage2_mmu.stage2_tlb.readAccesses            0                       # DTB read accesses
system.cpu.dtb.stage2_mmu.stage2_tlb.writeAccesses            0                       # DTB write accesses
system.cpu.dtb.stage2_mmu.stage2_tlb.instAccesses            0                       # ITB inst accesses
system.cpu.dtb.stage2_mmu.stage2_tlb.hits            0                       # Total TLB (inst and data) hits
system.cpu.dtb.stage2_mmu.stage2_tlb.misses            0                       # Total TLB (inst and data) misses
system.cpu.dtb.stage2_mmu.stage2_tlb.accesses            0                       # Total TLB (inst and data) accesses
system.cpu.dtb.stage2_mmu.stage2_tlb.walker.walks            0                       # Table walker walks requested
system.cpu.dtb.stage2_mmu.stage2_tlb.walker.requestOrigin_Requested::Data            0                       # Table walker requests started/completed, data/inst
system.cpu.dtb.stage2_mmu.stage2_tlb.walker.requestOrigin_Requested::Inst            0                       # Table walker requests started/completed, data/inst
system.cpu.dtb.stage2_mmu.stage2_tlb.walker.requestOrigin_Requested::total            0                       # Table walker requests started/completed, data/inst
system.cpu.dtb.stage2_mmu.stage2_tlb.walker.requestOrigin_Completed::Data            0                       # Table walker requests started/completed, data/inst
system.cpu.dtb.stage2_mmu.stage2_tlb.walker.requestOrigin_Completed::Inst            0                       # Table walker requests started/completed, data/inst
system.cpu.dtb.stage2_mmu.stage2_tlb.walker.requestOrigin_Completed::total            0                       # Table walker requests started/completed, data/inst
system.cpu.dtb.stage2_mmu.stage2_tlb.walker.requestOrigin::total            0                       # Table walker requests started/completed, data/inst
system.cpu.dtb.stage2_mmu.stage2_tlb.walker.power_state.pwrStateResidencyTicks::UNDEFINED 705653005000                       # Cumulative time (in ticks) in various power states
system.cpu.dtb.walker.walks                         0                       # Table walker walks requested
system.cpu.dtb.walker.requestOrigin_Requested::Data            0                       # Table walker requests started/completed, data/inst
system.cpu.dtb.walker.requestOrigin_Requested::Inst            0                       # Table walker requests started/completed, data/inst
system.cpu.dtb.walker.requestOrigin_Requested::total            0                       # Table walker requests started/completed, data/inst
system.cpu.dtb.walker.requestOrigin_Completed::Data            0                       # Table walker requests started/completed, data/inst
system.cpu.dtb.walker.requestOrigin_Completed::Inst            0                       # Table walker requests started/completed, data/inst
system.cpu.dtb.walker.requestOrigin_Completed::total            0                       # Table walker requests started/completed, data/inst
system.cpu.dtb.walker.requestOrigin::total            0                       # Table walker requests started/completed, data/inst
system.cpu.dtb.walker.power_state.pwrStateResidencyTicks::UNDEFINED 705653005000                       # Cumulative time (in ticks) in various power states
system.cpu.fetch2.intInstructions            45069720                       # Number of integer instructions successfully decoded
system.cpu.fetch2.fpInstructions                    0                       # Number of floating point instructions successfully decoded
system.cpu.fetch2.vecInstructions                   0                       # Number of SIMD instructions successfully decoded
system.cpu.fetch2.loadInstructions            2086138                       # Number of memory load instructions successfully decoded
system.cpu.fetch2.storeInstructions            169134                       # Number of memory store instructions successfully decoded
system.cpu.fetch2.amoInstructions                   0                       # Number of memory atomic instructions successfully decoded
system.cpu.icache.demand_hits::.cpu.inst     32133990                       # number of demand (read+write) hits
system.cpu.icache.demand_hits::total         32133990                       # number of demand (read+write) hits
system.cpu.icache.overall_hits::.cpu.inst     32133990                       # number of overall hits
system.cpu.icache.overall_hits::total        32133990                       # number of overall hits
system.cpu.icache.demand_misses::.cpu.inst          646                       # number of demand (read+write) misses
system.cpu.icache.demand_misses::total            646                       # number of demand (read+write) misses
system.cpu.icache.overall_misses::.cpu.inst          646                       # number of overall misses
system.cpu.icache.overall_misses::total           646                       # number of overall misses
system.cpu.icache.demand_miss_latency::.cpu.inst     63464000                       # number of demand (read+write) miss cycles
system.cpu.icache.demand_miss_latency::total     63464000                       # number of demand (read+write) miss cycles
system.cpu.icache.overall_miss_latency::.cpu.inst     63464000                       # number of overall miss cycles
system.cpu.icache.overall_miss_latency::total     63464000                       # number of overall miss cycles
system.cpu.icache.demand_accesses::.cpu.inst     32134636                       # number of demand (read+write) accesses
system.cpu.icache.demand_accesses::total     32134636                       # number of demand (read+write) accesses
system.cpu.icache.overall_accesses::.cpu.inst     32134636                       # number of overall (read+write) accesses
system.cpu.icache.overall_accesses::total     32134636                       # number of overall (read+write) accesses
system.cpu.icache.demand_miss_rate::.cpu.inst     0.000020                       # miss rate for demand accesses
system.cpu.icache.demand_miss_rate::total     0.000020                       # miss rate for demand accesses
system.cpu.icache.overall_miss_rate::.cpu.inst     0.000020                       # miss rate for overall accesses
system.cpu.icache.overall_miss_rate::total     0.000020                       # miss rate for overall accesses
system.cpu.icache.demand_avg_miss_latency::.cpu.inst 98241.486068                       # average overall miss latency
system.cpu.icache.demand_avg_miss_latency::total 98241.486068                       # average overall miss latency
system.cpu.icache.overall_avg_miss_latency::.cpu.inst 98241.486068                       # average overall miss latency
system.cpu.icache.overall_avg_miss_latency::total 98241.486068                       # average overall miss latency
system.cpu.icache.blocked_cycles::no_mshrs            0                       # number of cycles access was blocked
system.cpu.icache.blocked_cycles::no_targets            0                       # number of cycles access was blocked
system.cpu.icache.blocked::no_mshrs                 0                       # number of cycles access was blocked
system.cpu.icache.blocked::no_targets               0                       # number of cycles access was blocked
system.cpu.icache.avg_blocked_cycles::no_mshrs          nan                       # average number of cycles each access was blocked
system.cpu.icache.avg_blocked_cycles::no_targets          nan                       # average number of cycles each access was blocked
system.cpu.icache.writebacks::.writebacks          136                       # number of writebacks
system.cpu.icache.writebacks::total               136                       # number of writebacks
system.cpu.icache.demand_mshr_misses::.cpu.inst          646                       # number of demand (read+write) MSHR misses
system.cpu.icache.demand_mshr_misses::total          646                       # number of demand (read+write) MSHR misses
system.cpu.icache.overall_mshr_misses::.cpu.inst          646                       # number of overall MSHR misses
system.cpu.icache.overall_mshr_misses::total          646                       # number of overall MSHR misses
system.cpu.icache.demand_mshr_miss_latency::.cpu.inst     62172000                       # number of demand (read+write) MSHR miss cycles
system.cpu.icache.demand_mshr_miss_latency::total     62172000                       # number of demand (read+write) MSHR miss cycles
system.cpu.icache.overall_mshr_miss_latency::.cpu.inst     62172000                       # number of overall MSHR miss cycles
system.cpu.icache.overall_mshr_miss_latency::total     62172000                       # number of overall MSHR miss cycles
system.cpu.icache.demand_mshr_miss_rate::.cpu.inst     0.000020                       # mshr miss rate for demand accesses
system.cpu.icache.demand_mshr_miss_rate::total     0.000020                       # mshr miss rate for demand accesses
system.cpu.icache.overall_mshr_miss_rate::.cpu.inst     0.000020                       # mshr miss rate for overall accesses
system.cpu.icache.overall_mshr_miss_rate::total     0.000020                       # mshr miss rate for overall accesses
system.cpu.icache.demand_avg_mshr_miss_latency::.cpu.inst 96241.486068                       # average overall mshr miss latency
system.cpu.icache.demand_avg_mshr_miss_latency::total 96241.486068                       # average overall mshr miss latency
system.cpu.icache.overall_avg_mshr_miss_latency::.cpu.inst 96241.486068                       # average overall mshr miss latency
system.cpu.icache.overall_avg_mshr_miss_latency::total 96241.486068                       # average overall mshr miss latency
system.cpu.icache.replacements                    136                       # number of replacements
system.cpu.icache.ReadReq_hits::.cpu.inst     32133990                       # number of ReadReq hits
system.cpu.icache.ReadReq_hits::total        32133990                       # number of ReadReq hits
system.cpu.icache.ReadReq_misses::.cpu.inst          646                       # number of ReadReq misses
system.cpu.icache.ReadReq_misses::total           646                       # number of ReadReq misses
system.cpu.icache.ReadReq_miss_latency::.cpu.inst     63464000                       # number of ReadReq miss cycles
system.cpu.icache.ReadReq_miss_latency::total     63464000                       # number of ReadReq miss cycles
system.cpu.icache.ReadReq_accesses::.cpu.inst     32134636                       # number of ReadReq accesses(hits+misses)
system.cpu.icache.ReadReq_accesses::total     32134636                       # number of ReadReq accesses(hits+misses)
system.cpu.icache.ReadReq_miss_rate::.cpu.inst     0.000020                       # miss rate for ReadReq accesses
system.cpu.icache.ReadReq_miss_rate::total     0.000020                       # miss rate for ReadReq accesses
system.cpu.icache.ReadReq_avg_miss_latency::.cpu.inst 98241.486068                       # average ReadReq miss latency
system.cpu.icache.ReadReq_avg_miss_latency::total 98241.486068                       # average ReadReq miss latency
system.cpu.icache.ReadReq_mshr_misses::.cpu.inst          646                       # number of ReadReq MSHR misses
system.cpu.icache.ReadReq_mshr_misses::total          646                       # number of ReadReq MSHR misses
system.cpu.icache.ReadReq_mshr_miss_latency::.cpu.inst     62172000                       # number of ReadReq MSHR miss cycles
system.cpu.icache.ReadReq_mshr_miss_latency::total     62172000                       # number of ReadReq MSHR miss cycles
system.cpu.icache.ReadReq_mshr_miss_rate::.cpu.inst     0.000020                       # mshr miss rate for ReadReq accesses
system.cpu.icache.ReadReq_mshr_miss_rate::total     0.000020                       # mshr miss rate for ReadReq accesses
system.cpu.icache.ReadReq_avg_mshr_miss_latency::.cpu.inst 96241.486068                       # average ReadReq mshr miss latency
system.cpu.icache.ReadReq_avg_mshr_miss_latency::total 96241.486068                       # average ReadReq mshr miss latency
system.cpu.icache.power_state.pwrStateResidencyTicks::UNDEFINED 705653005000                       # Cumulative time (in ticks) in various power states
system.cpu.icache.tags.tagsinuse           424.891486                       # Cycle average of tags in use
system.cpu.icache.tags.total_refs            32134636                       # Total number of references to valid blocks.
system.cpu.icache.tags.sampled_refs               646                       # Sample count of references to valid blocks.
system.cpu.icache.tags.avg_refs          49744.018576                       # Average number of references to valid blocks.
system.cpu.icache.tags.warmup_cycle            108000                       # Cycle when the warmup percentage was hit.
system.cpu.icache.tags.occ_blocks::.cpu.inst   424.891486                       # Average occupied blocks per requestor
system.cpu.icache.tags.occ_percent::.cpu.inst     0.414933                       # Average percentage of cache occupancy
system.cpu.icache.tags.occ_percent::total     0.414933                       # Average percentage of cache occupancy
system.cpu.icache.tags.occ_task_id_blocks::1024          510                       # Occupied blocks per task id
system.cpu.icache.tags.age_task_id_blocks_1024::4          510                       # Occupied blocks per task id
system.cpu.icache.tags.occ_task_id_percent::1024     0.498047                       # Percentage of cache occupancy per task id
system.cpu.icache.tags.tag_accesses          32135282                       # Number of tag accesses
system.cpu.icache.tags.data_accesses         32135282                       # Number of data accesses
system.cpu.icache.tags.power_state.pwrStateResidencyTicks::UNDEFINED 705653005000                       # Cumulative time (in ticks) in various power states
system.cpu.itb.instHits                             0                       # ITB inst hits
system.cpu.itb.instMisses                           0                       # ITB inst misses
system.cpu.itb.readHits                             0                       # DTB read hits
system.cpu.itb.readMisses                           0                       # DTB read misses
system.cpu.itb.writeHits                            0                       # DTB write hits
system.cpu.itb.writeMisses                          0                       # DTB write misses
system.cpu.itb.inserts                              0                       # Number of times an entry is inserted into the TLB
system.cpu.itb.flushTlb                             0                       # Number of times complete TLB was flushed
system.cpu.itb.flushTlbMva                          0                       # Number of times TLB was flushed by MVA
system.cpu.itb.flushTlbMvaAsid                      0                       # Number of times TLB was flushed by MVA & ASID
system.cpu.itb.flushTlbAsid                         0                       # Number of times TLB was flushed by ASID
system.cpu.itb.flushedEntries                       0                       # Number of entries that have been flushed from TLB
system.cpu.itb.alignFaults                          0                       # Number of TLB faults due to alignment restrictions
system.cpu.itb.prefetchFaults                       0                       # Number of TLB faults due to prefetch
system.cpu.itb.domainFaults                         0                       # Number of TLB faults due to domain restrictions
system.cpu.itb.permsFaults                          0                       # Number of TLB faults due to permissions restrictions
system.cpu.itb.readAccesses                         0                       # DTB read accesses
system.cpu.itb.writeAccesses                        0                       # DTB write accesses
system.cpu.itb.instAccesses                         0                       # ITB inst accesses
system.cpu.itb.hits                                 0                       # Total TLB (inst and data) hits
system.cpu.itb.misses                               0                       # Total TLB (inst and data) misses
system.cpu.itb.accesses                             0                       # Total TLB (inst and data) accesses
system.cpu.itb.stage2_mmu.stage2_tlb.instHits            0                       # ITB inst hits
system.cpu.itb.stage2_mmu.stage2_tlb.instMisses            0                       # ITB inst misses
system.cpu.itb.stage2_mmu.stage2_tlb.readHits            0                       # DTB read hits
system.cpu.itb.stage2_mmu.stage2_tlb.readMisses            0                       # DTB read misses
system.cpu.itb.stage2_mmu.stage2_tlb.writeHits            0                       # DTB write hits
system.cpu.itb.stage2_mmu.stage2_tlb.writeMisses            0                       # DTB write misses
system.cpu.itb.stage2_mmu.stage2_tlb.inserts            0                       # Number of times an entry is inserted into the TLB
system.cpu.itb.stage2_mmu.stage2_tlb.flushTlb            0                       # Number of times complete TLB was flushed
system.cpu.itb.stage2_mmu.stage2_tlb.flushTlbMva            0                       # Number of times TLB was flushed by MVA
system.cpu.itb.stage2_mmu.stage2_tlb.flushTlbMvaAsid            0                       # Number of times TLB was flushed by MVA & ASID
system.cpu.itb.stage2_mmu.stage2_tlb.flushTlbAsid            0                       # Number of times TLB was flushed by ASID
system.cpu.itb.stage2_mmu.stage2_tlb.flushedEntries            0                       # Number of entries that have been flushed from TLB
system.cpu.itb.stage2_mmu.stage2_tlb.alignFaults            0                       # Number of TLB faults due to alignment restrictions
system.cpu.itb.stage2_mmu.stage2_tlb.prefetchFaults            0                       # Number of TLB faults due to prefetch
system.cpu.itb.stage2_mmu.stage2_tlb.domainFaults            0                       # Number of TLB faults due to domain restrictions
system.cpu.itb.stage2_mmu.stage2_tlb.permsFaults            0                       # Number of TLB faults due to permissions restrictions
system.cpu.itb.stage2_mmu.stage2_tlb.readAccesses            0                       # DTB read accesses
system.cpu.itb.stage2_mmu.stage2_tlb.writeAccesses            0                       # DTB write accesses
system.cpu.itb.stage2_mmu.stage2_tlb.instAccesses            0                       # ITB inst accesses
system.cpu.itb.stage2_mmu.stage2_tlb.hits            0                       # Total TLB (inst and data) hits
system.cpu.itb.stage2_mmu.stage2_tlb.misses            0                       # Total TLB (inst and data) misses
system.cpu.itb.stage2_mmu.stage2_tlb.accesses            0                       # Total TLB (inst and data) accesses
system.cpu.itb.stage2_mmu.stage2_tlb.walker.walks            0                       # Table walker walks requested
system.cpu.itb.stage2_mmu.stage2_tlb.walker.requestOrigin_Requested::Data            0                       # Table walker requests started/completed, data/inst
system.cpu.itb.stage2_mmu.stage2_tlb.walker.requestOrigin_Requested::Inst            0                       # Table walker requests started/completed, data/inst
system.cpu.itb.stage2_mmu.stage2_tlb.walker.requestOrigin_Requested::total            0                       # Table walker requests started/completed, data/inst
system.cpu.itb.stage2_mmu.stage2_tlb.walker.requestOrigin_Completed::Data            0                       # Table walker requests started/completed, data/inst
system.cpu.itb.stage2_mmu.stage2_tlb.walker.requestOrigin_Completed::Inst            0                       # Table walker requests started/completed, data/inst
system.cpu.itb.stage2_mmu.stage2_tlb.walker.requestOrigin_Completed::total            0                       # Table walker requests started/completed, data/inst
system.cpu.itb.stage2_mmu.stage2_tlb.walker.requestOrigin::total            0                       # Table walker requests started/completed, data/inst
system.cpu.itb.stage2_mmu.stage2_tlb.walker.power_state.pwrStateResidencyTicks::UNDEFINED 705653005000                       # Cumulative time (in ticks) in various power states
system.cpu.itb.walker.walks                         0                       # Table walker walks requested
system.cpu.itb.walker.requestOrigin_Requested::Data            0                       # Table walker requests started/completed, data/inst
system.cpu.itb.walker.requestOrigin_Requested::Inst            0                       # Table walker requests started/completed, data/inst
system.cpu.itb.walker.requestOrigin_Requested::total            0                       # Table walker requests started/completed, data/inst
system.cpu.itb.walker.requestOrigin_Completed::Data            0                       # Table walker requests started/completed, data/inst
system.cpu.itb.walker.requestOrigin_Completed::Inst            0                       # Table walker requests started/completed, data/inst
system.cpu.itb.walker.requestOrigin_Completed::total            0                       # Table walker requests started/completed, data/inst
system.cpu.itb.walker.requestOrigin::total            0                       # Table walker requests started/completed, data/inst
system.cpu.itb.walker.power_state.pwrStateResidencyTicks::UNDEFINED 705653005000                       # Cumulative time (in ticks) in various power states
system.cpu.power_state.pwrStateResidencyTicks::ON 705653005000                       # Cumulative time (in ticks) in various power states
system.cpu.thread_0.numInsts                100000000                       # Number of Instructions committed
system.cpu.thread_0.numOps                  184220346                       # Number of Ops committed
system.cpu.thread_0.numMemRefs                      0                       # Number of Memory References
system.cpu_clk_domain.clock                      1000                       # Clock period in ticks
system.cpu_voltage_domain.voltage                   1                       # Voltage in Volts
system.l2.demand_hits::.cpu.inst                   66                       # number of demand (read+write) hits
system.l2.demand_hits::.cpu.data                 7078                       # number of demand (read+write) hits
system.l2.demand_hits::total                     7144                       # number of demand (read+write) hits
system.l2.overall_hits::.cpu.inst                  66                       # number of overall hits
system.l2.overall_hits::.cpu.data                7078                       # number of overall hits
system.l2.overall_hits::total                    7144                       # number of overall hits
system.l2.demand_misses::.cpu.inst                580                       # number of demand (read+write) misses
system.l2.demand_misses::.cpu.data            5263265                       # number of demand (read+write) misses
system.l2.demand_misses::total                5263845                       # number of demand (read+write) misses
system.l2.overall_misses::.cpu.inst               580                       # number of overall misses
system.l2.overall_misses::.cpu.data           5263265                       # number of overall misses
system.l2.overall_misses::total               5263845                       # number of overall misses
system.l2.demand_miss_latency::.cpu.inst     58799000                       # number of demand (read+write) miss cycles
system.l2.demand_miss_latency::.cpu.data 525887447000                       # number of demand (read+write) miss cycles
system.l2.demand_miss_latency::total     525946246000                       # number of demand (read+write) miss cycles
system.l2.overall_miss_latency::.cpu.inst     58799000                       # number of overall miss cycles
system.l2.overall_miss_latency::.cpu.data 525887447000                       # number of overall miss cycles
system.l2.overall_miss_latency::total    525946246000                       # number of overall miss cycles
system.l2.demand_accesses::.cpu.inst              646                       # number of demand (read+write) accesses
system.l2.demand_accesses::.cpu.data          5270343                       # number of demand (read+write) accesses
system.l2.demand_accesses::total              5270989                       # number of demand (read+write) accesses
system.l2.overall_accesses::.cpu.inst             646                       # number of overall (read+write) accesses
system.l2.overall_accesses::.cpu.data         5270343                       # number of overall (read+write) accesses
system.l2.overall_accesses::total             5270989                       # number of overall (read+write) accesses
system.l2.demand_miss_rate::.cpu.inst        0.897833                       # miss rate for demand accesses
system.l2.demand_miss_rate::.cpu.data        0.998657                       # miss rate for demand accesses
system.l2.demand_miss_rate::total            0.998645                       # miss rate for demand accesses
system.l2.overall_miss_rate::.cpu.inst       0.897833                       # miss rate for overall accesses
system.l2.overall_miss_rate::.cpu.data       0.998657                       # miss rate for overall accesses
system.l2.overall_miss_rate::total           0.998645                       # miss rate for overall accesses
system.l2.demand_avg_miss_latency::.cpu.inst 101377.586207                       # average overall miss latency
system.l2.demand_avg_miss_latency::.cpu.data 99916.581628                       # average overall miss latency
system.l2.demand_avg_miss_latency::total 99916.742609                       # average overall miss latency
system.l2.overall_avg_miss_latency::.cpu.inst 101377.586207                       # average overall miss latency
system.l2.overall_avg_miss_latency::.cpu.data 99916.581628                       # average overall miss latency
system.l2.overall_avg_miss_latency::total 99916.742609                       # average overall miss latency
system.l2.blocked_cycles::no_mshrs                  0                       # number of cycles access was blocked
system.l2.blocked_cycles::no_targets                0                       # number of cycles access was blocked
system.l2.blocked::no_mshrs                         0                       # number of cycles access was blocked
system.l2.blocked::no_targets                       0                       # number of cycles access was blocked
system.l2.avg_blocked_cycles::no_mshrs            nan                       # average number of cycles each access was blocked
system.l2.avg_blocked_cycles::no_targets          nan                       # average number of cycles each access was blocked
system.l2.writebacks::.writebacks             5254829                       # number of writebacks
system.l2.writebacks::total                   5254829                       # number of writebacks
system.l2.demand_mshr_hits::.cpu.inst               1                       # number of demand (read+write) MSHR hits
system.l2.demand_mshr_hits::.cpu.data               4                       # number of demand (read+write) MSHR hits
system.l2.demand_mshr_hits::total                   5                       # number of demand (read+write) MSHR hits
system.l2.overall_mshr_hits::.cpu.inst              1                       # number of overall MSHR hits
system.l2.overall_mshr_hits::.cpu.data              4                       # number of overall MSHR hits
system.l2.overall_mshr_hits::total                  5                       # number of overall MSHR hits
system.l2.demand_mshr_misses::.cpu.inst           579                       # number of demand (read+write) MSHR misses
system.l2.demand_mshr_misses::.cpu.data       5263261                       # number of demand (read+write) MSHR misses
system.l2.demand_mshr_misses::total           5263840                       # number of demand (read+write) MSHR misses
system.l2.overall_mshr_misses::.cpu.inst          579                       # number of overall MSHR misses
system.l2.overall_mshr_misses::.cpu.data      5263261                       # number of overall MSHR misses
system.l2.overall_mshr_misses::total          5263840                       # number of overall MSHR misses
system.l2.demand_mshr_miss_latency::.cpu.inst     47116000                       # number of demand (read+write) MSHR miss cycles
system.l2.demand_mshr_miss_latency::.cpu.data 420621894000                       # number of demand (read+write) MSHR miss cycles
system.l2.demand_mshr_miss_latency::total 420669010000                       # number of demand (read+write) MSHR miss cycles
system.l2.overall_mshr_miss_latency::.cpu.inst     47116000                       # number of overall MSHR miss cycles
system.l2.overall_mshr_miss_latency::.cpu.data 420621894000                       # number of overall MSHR miss cycles
system.l2.overall_mshr_miss_latency::total 420669010000                       # number of overall MSHR miss cycles
system.l2.demand_mshr_miss_rate::.cpu.inst     0.896285                       # mshr miss rate for demand accesses
system.l2.demand_mshr_miss_rate::.cpu.data     0.998656                       # mshr miss rate for demand accesses
system.l2.demand_mshr_miss_rate::total       0.998644                       # mshr miss rate for demand accesses
system.l2.overall_mshr_miss_rate::.cpu.inst     0.896285                       # mshr miss rate for overall accesses
system.l2.overall_mshr_miss_rate::.cpu.data     0.998656                       # mshr miss rate for overall accesses
system.l2.overall_mshr_miss_rate::total      0.998644                       # mshr miss rate for overall accesses
system.l2.demand_avg_mshr_miss_latency::.cpu.inst 81374.784111                       # average overall mshr miss latency
system.l2.demand_avg_mshr_miss_latency::.cpu.data 79916.594294                       # average overall mshr miss latency
system.l2.demand_avg_mshr_miss_latency::total 79916.754689                       # average overall mshr miss latency
system.l2.overall_avg_mshr_miss_latency::.cpu.inst 81374.784111                       # average overall mshr miss latency
system.l2.overall_avg_mshr_miss_latency::.cpu.data 79916.594294                       # average overall mshr miss latency
system.l2.overall_avg_mshr_miss_latency::total 79916.754689                       # average overall mshr miss latency
system.l2.replacements                        5255683                       # number of replacements
system.l2.WritebackDirty_hits::.writebacks      5266460                       # number of WritebackDirty hits
system.l2.WritebackDirty_hits::total          5266460                       # number of WritebackDirty hits
system.l2.WritebackDirty_accesses::.writebacks      5266460                       # number of WritebackDirty accesses(hits+misses)
system.l2.WritebackDirty_accesses::total      5266460                       # number of WritebackDirty accesses(hits+misses)
system.l2.WritebackClean_hits::.writebacks          130                       # number of WritebackClean hits
system.l2.WritebackClean_hits::total              130                       # number of WritebackClean hits
system.l2.WritebackClean_accesses::.writebacks          130                       # number of WritebackClean accesses(hits+misses)
system.l2.WritebackClean_accesses::total          130                       # number of WritebackClean accesses(hits+misses)
system.l2.ReadExReq_hits::.cpu.data              3388                       # number of ReadExReq hits
system.l2.ReadExReq_hits::total                  3388                       # number of ReadExReq hits
system.l2.ReadExReq_misses::.cpu.data         5262990                       # number of ReadExReq misses
system.l2.ReadExReq_misses::total             5262990                       # number of ReadExReq misses
system.l2.ReadExReq_miss_latency::.cpu.data 525858553000                       # number of ReadExReq miss cycles
system.l2.ReadExReq_miss_latency::total  525858553000                       # number of ReadExReq miss cycles
system.l2.ReadExReq_accesses::.cpu.data       5266378                       # number of ReadExReq accesses(hits+misses)
system.l2.ReadExReq_accesses::total           5266378                       # number of ReadExReq accesses(hits+misses)
system.l2.ReadExReq_miss_rate::.cpu.data     0.999357                       # miss rate for ReadExReq accesses
system.l2.ReadExReq_miss_rate::total         0.999357                       # miss rate for ReadExReq accesses
system.l2.ReadExReq_avg_miss_latency::.cpu.data 99916.312400                       # average ReadExReq miss latency
system.l2.ReadExReq_avg_miss_latency::total 99916.312400                       # average ReadExReq miss latency
system.l2.ReadExReq_mshr_misses::.cpu.data      5262990                       # number of ReadExReq MSHR misses
system.l2.ReadExReq_mshr_misses::total        5262990                       # number of ReadExReq MSHR misses
system.l2.ReadExReq_mshr_miss_latency::.cpu.data 420598753000                       # number of ReadExReq MSHR miss cycles
system.l2.ReadExReq_mshr_miss_latency::total 420598753000                       # number of ReadExReq MSHR miss cycles
system.l2.ReadExReq_mshr_miss_rate::.cpu.data     0.999357                       # mshr miss rate for ReadExReq accesses
system.l2.ReadExReq_mshr_miss_rate::total     0.999357                       # mshr miss rate for ReadExReq accesses
system.l2.ReadExReq_avg_mshr_miss_latency::.cpu.data 79916.312400                       # average ReadExReq mshr miss latency
system.l2.ReadExReq_avg_mshr_miss_latency::total 79916.312400                       # average ReadExReq mshr miss latency
system.l2.ReadCleanReq_hits::.cpu.inst             66                       # number of ReadCleanReq hits
system.l2.ReadCleanReq_hits::total                 66                       # number of ReadCleanReq hits
system.l2.ReadCleanReq_misses::.cpu.inst          580                       # number of ReadCleanReq misses
system.l2.ReadCleanReq_misses::total              580                       # number of ReadCleanReq misses
system.l2.ReadCleanReq_miss_latency::.cpu.inst     58799000                       # number of ReadCleanReq miss cycles
system.l2.ReadCleanReq_miss_latency::total     58799000                       # number of ReadCleanReq miss cycles
system.l2.ReadCleanReq_accesses::.cpu.inst          646                       # number of ReadCleanReq accesses(hits+misses)
system.l2.ReadCleanReq_accesses::total            646                       # number of ReadCleanReq accesses(hits+misses)
system.l2.ReadCleanReq_miss_rate::.cpu.inst     0.897833                       # miss rate for ReadCleanReq accesses
system.l2.ReadCleanReq_miss_rate::total      0.897833                       # miss rate for ReadCleanReq accesses
system.l2.ReadCleanReq_avg_miss_latency::.cpu.inst 101377.586207                       # average ReadCleanReq miss latency
system.l2.ReadCleanReq_avg_miss_latency::total 101377.586207                       # average ReadCleanReq miss latency
system.l2.ReadCleanReq_mshr_hits::.cpu.inst            1                       # number of ReadCleanReq MSHR hits
system.l2.ReadCleanReq_mshr_hits::total             1                       # number of ReadCleanReq MSHR hits
system.l2.ReadCleanReq_mshr_misses::.cpu.inst          579                       # number of ReadCleanReq MSHR misses
system.l2.ReadCleanReq_mshr_misses::total          579                       # number of ReadCleanReq MSHR misses
system.l2.ReadCleanReq_mshr_miss_latency::.cpu.inst     47116000                       # number of ReadCleanReq MSHR miss cycles
system.l2.ReadCleanReq_mshr_miss_latency::total     47116000                       # number of ReadCleanReq MSHR miss cycles
system.l2.ReadCleanReq_mshr_miss_rate::.cpu.inst     0.896285                       # mshr miss rate for ReadCleanReq accesses
system.l2.ReadCleanReq_mshr_miss_rate::total     0.896285                       # mshr miss rate for ReadCleanReq accesses
system.l2.ReadCleanReq_avg_mshr_miss_latency::.cpu.inst 81374.784111                       # average ReadCleanReq mshr miss latency
system.l2.ReadCleanReq_avg_mshr_miss_latency::total 81374.784111                       # average ReadCleanReq mshr miss latency
system.l2.ReadSharedReq_hits::.cpu.data          3690                       # number of ReadSharedReq hits
system.l2.ReadSharedReq_hits::total              3690                       # number of ReadSharedReq hits
system.l2.ReadSharedReq_misses::.cpu.data          275                       # number of ReadSharedReq misses
system.l2.ReadSharedReq_misses::total             275                       # number of ReadSharedReq misses
system.l2.ReadSharedReq_miss_latency::.cpu.data     28894000                       # number of ReadSharedReq miss cycles
system.l2.ReadSharedReq_miss_latency::total     28894000                       # number of ReadSharedReq miss cycles
system.l2.ReadSharedReq_accesses::.cpu.data         3965                       # number of ReadSharedReq accesses(hits+misses)
system.l2.ReadSharedReq_accesses::total          3965                       # number of ReadSharedReq accesses(hits+misses)
system.l2.ReadSharedReq_miss_rate::.cpu.data     0.069357                       # miss rate for ReadSharedReq accesses
system.l2.ReadSharedReq_miss_rate::total     0.069357                       # miss rate for ReadSharedReq accesses
system.l2.ReadSharedReq_avg_miss_latency::.cpu.data 105069.090909                       # average ReadSharedReq miss latency
system.l2.ReadSharedReq_avg_miss_latency::total 105069.090909                       # average ReadSharedReq miss latency
system.l2.ReadSharedReq_mshr_hits::.cpu.data            4                       # number of ReadSharedReq MSHR hits
system.l2.ReadSharedReq_mshr_hits::total            4                       # number of ReadSharedReq MSHR hits
system.l2.ReadSharedReq_mshr_misses::.cpu.data          271                       # number of ReadSharedReq MSHR misses
system.l2.ReadSharedReq_mshr_misses::total          271                       # number of ReadSharedReq MSHR misses
system.l2.ReadSharedReq_mshr_miss_latency::.cpu.data     23141000                       # number of ReadSharedReq MSHR miss cycles
system.l2.ReadSharedReq_mshr_miss_latency::total     23141000                       # number of ReadSharedReq MSHR miss cycles
system.l2.ReadSharedReq_mshr_miss_rate::.cpu.data     0.068348                       # mshr miss rate for ReadSharedReq accesses
system.l2.ReadSharedReq_mshr_miss_rate::total     0.068348                       # mshr miss rate for ReadSharedReq accesses
system.l2.ReadSharedReq_avg_mshr_miss_latency::.cpu.data 85391.143911                       # average ReadSharedReq mshr miss latency
system.l2.ReadSharedReq_avg_mshr_miss_latency::total 85391.143911                       # average ReadSharedReq mshr miss latency
system.l2.power_state.pwrStateResidencyTicks::UNDEFINED 705653005000                       # Cumulative time (in ticks) in various power states
system.l2.tags.tagsinuse                  8136.724446                       # Cycle average of tags in use
system.l2.tags.total_refs                    10540431                       # Total number of references to valid blocks.
system.l2.tags.sampled_refs                   5263875                       # Sample count of references to valid blocks.
system.l2.tags.avg_refs                      2.002409                       # Average number of references to valid blocks.
system.l2.tags.warmup_cycle                     87000                       # Cycle when the warmup percentage was hit.
system.l2.tags.occ_blocks::.writebacks       0.039601                       # Average occupied blocks per requestor
system.l2.tags.occ_blocks::.cpu.inst         3.394885                       # Average occupied blocks per requestor
system.l2.tags.occ_blocks::.cpu.data      8133.289960                       # Average occupied blocks per requestor
system.l2.tags.occ_percent::.writebacks      0.000005                       # Average percentage of cache occupancy
system.l2.tags.occ_percent::.cpu.inst        0.000414                       # Average percentage of cache occupancy
system.l2.tags.occ_percent::.cpu.data        0.992833                       # Average percentage of cache occupancy
system.l2.tags.occ_percent::total            0.993252                       # Average percentage of cache occupancy
system.l2.tags.occ_task_id_blocks::1024          8192                       # Occupied blocks per task id
system.l2.tags.age_task_id_blocks_1024::0           75                       # Occupied blocks per task id
system.l2.tags.age_task_id_blocks_1024::1          678                       # Occupied blocks per task id
system.l2.tags.age_task_id_blocks_1024::2         6782                       # Occupied blocks per task id
system.l2.tags.age_task_id_blocks_1024::3          657                       # Occupied blocks per task id
system.l2.tags.occ_task_id_percent::1024            1                       # Percentage of cache occupancy per task id
system.l2.tags.tag_accesses                  26344747                       # Number of tag accesses
system.l2.tags.data_accesses                 26344747                       # Number of data accesses
system.l2.tags.power_state.pwrStateResidencyTicks::UNDEFINED 705653005000                       # Cumulative time (in ticks) in various power states
system.mem_ctrls.avgPriority_.writebacks::samples   5254829.00                       # Average QoS priority value for accepted requests
system.mem_ctrls.avgPriority_.cpu.inst::samples       579.00                       # Average QoS priority value for accepted requests
system.mem_ctrls.avgPriority_.cpu.data::samples   5263261.00                       # Average QoS priority value for accepted requests
system.mem_ctrls.priorityMinLatency      0.000000018750                       # per QoS priority minimum request to response latency (s)
system.mem_ctrls.priorityMaxLatency      0.000495456750                       # per QoS priority maximum request to response latency (s)
system.mem_ctrls.numReadWriteTurnArounds       327946                       # Number of turnarounds from READ to WRITE
system.mem_ctrls.numWriteReadTurnArounds       327947                       # Number of turnarounds from WRITE to READ
system.mem_ctrls.numStayReadState            15633269                       # Number of times bus staying in READ state
system.mem_ctrls.numStayWriteState            4926889                       # Number of times bus staying in WRITE state
system.mem_ctrls.readReqs                     5263840                       # Number of read requests accepted
system.mem_ctrls.writeReqs                    5254829                       # Number of write requests accepted
system.mem_ctrls.readBursts                   5263840                       # Number of controller read bursts, including those serviced by the write queue
system.mem_ctrls.writeBursts                  5254829                       # Number of controller write bursts, including those merged in the write queue
system.mem_ctrls.servicedByWrQ                      0                       # Number of controller read bursts serviced by the write queue
system.mem_ctrls.mergedWrBursts                     0                       # Number of controller write bursts merged with an existing one
system.mem_ctrls.neitherReadNorWriteReqs            0                       # Number of requests that are neither read nor write
system.mem_ctrls.avgRdQLen                       1.00                       # Average read queue length when enqueuing
system.mem_ctrls.avgWrQLen                      25.55                       # Average write queue length when enqueuing
system.mem_ctrls.numRdRetry                         0                       # Number of times read queue was full causing retry
system.mem_ctrls.numWrRetry                         0                       # Number of times write queue was full causing retry
system.mem_ctrls.readPktSize::0                     0                       # Read request sizes (log2)
system.mem_ctrls.readPktSize::1                     0                       # Read request sizes (log2)
system.mem_ctrls.readPktSize::2                     0                       # Read request sizes (log2)
system.mem_ctrls.readPktSize::3                     0                       # Read request sizes (log2)
system.mem_ctrls.readPktSize::4                     0                       # Read request sizes (log2)
system.mem_ctrls.readPktSize::5                     0                       # Read request sizes (log2)
system.mem_ctrls.readPktSize::6               5263840                       # Read request sizes (log2)
system.mem_ctrls.writePktSize::0                    0                       # Write request sizes (log2)
[...]
system.mem_ctrls.dram.bw_write::.writebacks    476592679                       # Write bandwidth from this memory (bytes/s)
system.mem_ctrls.dram.bw_write::total       476592679                       # Write bandwidth from this memory (bytes/s)
system.mem_ctrls.dram.bw_total::.writebacks    476592679                       # Total bandwidth to/from this memory (bytes/s)
system.mem_ctrls.dram.bw_total::.cpu.inst        52513                       # Total bandwidth to/from this memory (bytes/s)
system.mem_ctrls.dram.bw_total::.cpu.data    477357429                       # Total bandwidth to/from this memory (bytes/s)
system.mem_ctrls.dram.bw_total::total       954002621                       # Total bandwidth to/from this memory (bytes/s)
system.mem_ctrls.dram.readBursts              5263840                       # Number of DRAM read bursts
system.mem_ctrls.dram.writeBursts             5254799                       # Number of DRAM write bursts
system.mem_ctrls.dram.perBankRdBursts::0       329237                       # Per bank write bursts
system.mem_ctrls.dram.perBankRdBursts::1       329023                       # Per bank write bursts
system.mem_ctrls.dram.perBankRdBursts::2       329070                       # Per bank write bursts
system.mem_ctrls.dram.perBankRdBursts::3       329044                       # Per bank write bursts
system.mem_ctrls.dram.perBankRdBursts::4       329101                       # Per bank write bursts
system.mem_ctrls.dram.perBankRdBursts::5       328945                       # Per bank write bursts
system.mem_ctrls.dram.perBankRdBursts::6       328902                       # Per bank write bursts
system.mem_ctrls.dram.perBankRdBursts::7       328870                       # Per bank write bursts
system.mem_ctrls.dram.perBankRdBursts::8       328869                       # Per bank write bursts
system.mem_ctrls.dram.perBankRdBursts::9       328968                       # Per bank write bursts
system.mem_ctrls.dram.perBankRdBursts::10       329028                       # Per bank write bursts
system.mem_ctrls.dram.perBankRdBursts::11       328958                       # Per bank write bursts
system.mem_ctrls.dram.perBankRdBursts::12       328970                       # Per bank write bursts
system.mem_ctrls.dram.perBankRdBursts::13       328795                       # Per bank write bursts
system.mem_ctrls.dram.perBankRdBursts::14       328975                       # Per bank write bursts
system.mem_ctrls.dram.perBankRdBursts::15       329085                       # Per bank write bursts
system.mem_ctrls.dram.perBankWrBursts::0       328618                       # Per bank write bursts
system.mem_ctrls.dram.perBankWrBursts::1       328455                       # Per bank write bursts
system.mem_ctrls.dram.perBankWrBursts::2       328498                       # Per bank write bursts
system.mem_ctrls.dram.perBankWrBursts::3       328500                       # Per bank write bursts
system.mem_ctrls.dram.perBankWrBursts::4       328511                       # Per bank write bursts
system.mem_ctrls.dram.perBankWrBursts::5       328404                       # Per bank write bursts
system.mem_ctrls.dram.perBankWrBursts::6       328320                       # Per bank write bursts
system.mem_ctrls.dram.perBankWrBursts::7       328320                       # Per bank write bursts
system.mem_ctrls.dram.perBankWrBursts::8       328320                       # Per bank write bursts
system.mem_ctrls.dram.perBankWrBursts::9       328383                       # Per bank write bursts
system.mem_ctrls.dram.perBankWrBursts::10       328457                       # Per bank write bursts
system.mem_ctrls.dram.perBankWrBursts::11       328438                       # Per bank write bursts
system.mem_ctrls.dram.perBankWrBursts::12       328444                       # Per bank write bursts
system.mem_ctrls.dram.perBankWrBursts::13       328258                       # Per bank write bursts
system.mem_ctrls.dram.perBankWrBursts::14       328381                       # Per bank write bursts
system.mem_ctrls.dram.perBankWrBursts::15       328492                       # Per bank write bursts
system.mem_ctrls.dram.totQLat             52135831500                       # Total ticks spent queuing
system.mem_ctrls.dram.totBusLat           26319200000                       # Total ticks spent in databus transfers
system.mem_ctrls.dram.totMemAccLat       150832831500                       # Total ticks spent from burst creation until serviced by the DRAM
system.mem_ctrls.dram.avgQLat                 9904.52                       # Average queueing delay per DRAM burst
system.mem_ctrls.dram.avgBusLat               5000.00                       # Average bus latency per DRAM burst
system.mem_ctrls.dram.avgMemAccLat           28654.52                       # Average memory access latency per DRAM burst
system.mem_ctrls.dram.readRowHits             4810792                       # Number of row buffer hits during reads
system.mem_ctrls.dram.writeRowHits            4894259                       # Number of row buffer hits during writes
system.mem_ctrls.dram.readRowHitRate            91.39                       # Row buffer hit rate for reads
system.mem_ctrls.dram.writeRowHitRate           93.14                       # Row buffer hit rate for writes
system.mem_ctrls.dram.bytesPerActivate::samples       813587                       # Bytes accessed per row activation
system.mem_ctrls.dram.bytesPerActivate::mean   827.437882                       # Bytes accessed per row activation
system.mem_ctrls.dram.bytesPerActivate::gmean   710.367435                       # Bytes accessed per row activation
system.mem_ctrls.dram.bytesPerActivate::stdev   308.428648                       # Bytes accessed per row activation
system.mem_ctrls.dram.bytesPerActivate::0-127        36021      4.43%      4.43% # Bytes accessed per row activation
system.mem_ctrls.dram.bytesPerActivate::128-255        24210      2.98%      7.40% # Bytes accessed per row activation
system.mem_ctrls.dram.bytesPerActivate::256-383        38132      4.69%     12.09% # Bytes accessed per row activation
system.mem_ctrls.dram.bytesPerActivate::384-511        44687      5.49%     17.58% # Bytes accessed per row activation
system.mem_ctrls.dram.bytesPerActivate::512-639        53528      6.58%     24.16% # Bytes accessed per row activation
system.mem_ctrls.dram.bytesPerActivate::640-767        34407      4.23%     28.39% # Bytes accessed per row activation
system.mem_ctrls.dram.bytesPerActivate::768-895        27437      3.37%     31.76% # Bytes accessed per row activation
system.mem_ctrls.dram.bytesPerActivate::896-1023        41199      5.06%     36.83% # Bytes accessed per row activation
system.mem_ctrls.dram.bytesPerActivate::1024-1151       513966     63.17%    100.00% # Bytes accessed per row activation
system.mem_ctrls.dram.bytesPerActivate::total       813587                       # Bytes accessed per row activation
system.mem_ctrls.dram.bytesRead             336885760                       # Total number of bytes read from DRAM
system.mem_ctrls.dram.bytesWritten          336307136                       # Total number of bytes written to DRAM
system.mem_ctrls.dram.avgRdBW              477.409942                       # Average DRAM read bandwidth in MiBytes/s
system.mem_ctrls.dram.avgWrBW              476.589958                       # Average DRAM write bandwidth in MiBytes/s
system.mem_ctrls.dram.peakBW                 12800.00                       # Theoretical peak bandwidth in MiByte/s
system.mem_ctrls.dram.busUtil                    7.45                       # Data bus utilization in percentage
system.mem_ctrls.dram.busUtilRead                3.73                       # Data bus utilization in percentage for reads
system.mem_ctrls.dram.busUtilWrite               3.72                       # Data bus utilization in percentage for writes
system.mem_ctrls.dram.pageHitRate               92.27                       # Row buffer hit rate, read and write combined
system.mem_ctrls.dram.power_state.pwrStateResidencyTicks::UNDEFINED 705653005000                       # Cumulative time (in ticks) in various power states
system.mem_ctrls.dram.rank0.actEnergy      2905458780                       # Energy for activate commands per rank (pJ)
system.mem_ctrls.dram.rank0.preEnergy      1544284170                       # Energy for precharge commands per rank (pJ)
system.mem_ctrls.dram.rank0.readEnergy    18793850880                       # Energy for read commands per rank (pJ)
system.mem_ctrls.dram.rank0.writeEnergy   13716192060                       # Energy for write commands per rank (pJ)
system.mem_ctrls.dram.rank0.refreshEnergy 55703593920.000008                       # Energy for refresh commands per rank (pJ)
system.mem_ctrls.dram.rank0.actBackEnergy 165260435160                       # Energy for active background per rank (pJ)
system.mem_ctrls.dram.rank0.preBackEnergy 131804071680                       # Energy for precharge background per rank (pJ)
system.mem_ctrls.dram.rank0.actPowerDownEnergy            0                       # Energy for active power-down per rank (pJ)
system.mem_ctrls.dram.rank0.prePowerDownEnergy            0                       # Energy for precharge power-down per rank (pJ)
system.mem_ctrls.dram.rank0.selfRefreshEnergy            0                       # Energy for self refresh per rank (pJ)
system.mem_ctrls.dram.rank0.totalEnergy  389727886650                       # Total energy per rank (pJ)
system.mem_ctrls.dram.rank0.averagePower   552.293952                       # Core power per rank (mW)
system.mem_ctrls.dram.rank0.totalIdleTime            0                       # Total Idle time Per DRAM Rank
system.mem_ctrls.dram.rank0.pwrStateTime::IDLE 338013450000                       # Time in different power states
system.mem_ctrls.dram.rank0.pwrStateTime::REF  23563280000                       # Time in different power states
system.mem_ctrls.dram.rank0.pwrStateTime::SREF            0                       # Time in different power states
system.mem_ctrls.dram.rank0.pwrStateTime::PRE_PDN            0                       # Time in different power states
system.mem_ctrls.dram.rank0.pwrStateTime::ACT 344076275000                       # Time in different power states
system.mem_ctrls.dram.rank0.pwrStateTime::ACT_PDN            0                       # Time in different power states
system.mem_ctrls.dram.rank1.actEnergy      2903559540                       # Energy for activate commands per rank (pJ)
system.mem_ctrls.dram.rank1.preEnergy      1543278495                       # Energy for precharge commands per rank (pJ)
system.mem_ctrls.dram.rank1.readEnergy    18789966720                       # Energy for read commands per rank (pJ)
system.mem_ctrls.dram.rank1.writeEnergy   13713843060                       # Energy for write commands per rank (pJ)
system.mem_ctrls.dram.rank1.refreshEnergy 55703593920.000008                       # Energy for refresh commands per rank (pJ)
system.mem_ctrls.dram.rank1.actBackEnergy 165158077410                       # Energy for active background per rank (pJ)
system.mem_ctrls.dram.rank1.preBackEnergy 131890267680                       # Energy for precharge background per rank (pJ)
system.mem_ctrls.dram.rank1.actPowerDownEnergy            0                       # Energy for active power-down per rank (pJ)
system.mem_ctrls.dram.rank1.prePowerDownEnergy            0                       # Energy for precharge power-down per rank (pJ)
system.mem_ctrls.dram.rank1.selfRefreshEnergy            0                       # Energy for self refresh per rank (pJ)
system.mem_ctrls.dram.rank1.totalEnergy  389702586825                       # Total energy per rank (pJ)
system.mem_ctrls.dram.rank1.averagePower   552.258099                       # Core power per rank (mW)
system.mem_ctrls.dram.rank1.totalIdleTime            0                       # Total Idle time Per DRAM Rank
system.mem_ctrls.dram.rank1.pwrStateTime::IDLE 338238611250                       # Time in different power states
system.mem_ctrls.dram.rank1.pwrStateTime::REF  23563280000                       # Time in different power states
system.mem_ctrls.dram.rank1.pwrStateTime::SREF            0                       # Time in different power states
system.mem_ctrls.dram.rank1.pwrStateTime::PRE_PDN            0                       # Time in different power states
system.mem_ctrls.dram.rank1.pwrStateTime::ACT 343851113750                       # Time in different power states
system.mem_ctrls.dram.rank1.pwrStateTime::ACT_PDN            0                       # Time in different power states
system.mem_ctrls.power_state.pwrStateResidencyTicks::UNDEFINED 705653005000                       # Cumulative time (in ticks) in various power states
system.membus.trans_dist::ReadResp                850                       # Transaction distribution
system.membus.trans_dist::WritebackDirty      5254829                       # Transaction distribution
system.membus.trans_dist::CleanEvict              298                       # Transaction distribution
system.membus.trans_dist::ReadExReq           5262990                       # Transaction distribution
system.membus.trans_dist::ReadExResp          5262990                       # Transaction distribution
system.membus.trans_dist::ReadSharedReq           850                       # Transaction distribution
system.membus.pkt_count_system.l2.mem_side_port::system.mem_ctrls.port     15782807                       # Packet count per connected requestor and responder (bytes)
system.membus.pkt_count::total               15782807                       # Packet count per connected requestor and responder (bytes)
system.membus.pkt_size_system.l2.mem_side_port::system.mem_ctrls.port    673194816                       # Cumulative packet size per connected requestor and responder (bytes)
system.membus.pkt_size::total               673194816                       # Cumulative packet size per connected requestor and responder (bytes)
system.membus.snoops                                0                       # Total snoops (count)
system.membus.snoopTraffic                          0                       # Total snoop traffic (bytes)
system.membus.snoop_fanout::samples           5263840                       # Request fanout histogram
system.membus.snoop_fanout::mean                    0                       # Request fanout histogram
system.membus.snoop_fanout::stdev                   0                       # Request fanout histogram
system.membus.snoop_fanout::underflows              0      0.00%      0.00% # Request fanout histogram
system.membus.snoop_fanout::0                 5263840    100.00%    100.00% # Request fanout histogram
system.membus.snoop_fanout::1                       0      0.00%    100.00% # Request fanout histogram
system.membus.snoop_fanout::overflows               0      0.00%    100.00% # Request fanout histogram
system.membus.snoop_fanout::min_value               0                       # Request fanout histogram
system.membus.snoop_fanout::max_value               0                       # Request fanout histogram
system.membus.snoop_fanout::total             5263840                       # Request fanout histogram
system.membus.power_state.pwrStateResidencyTicks::UNDEFINED 705653005000                       # Cumulative time (in ticks) in various power states
system.membus.reqLayer0.occupancy         31538283000                       # Layer occupancy (ticks)
system.membus.reqLayer0.utilization               4.5                       # Layer utilization (%)
system.membus.respLayer1.occupancy        27699487250                       # Layer occupancy (ticks)
system.membus.respLayer1.utilization              3.9                       # Layer utilization (%)
system.tol2bus.trans_dist::ReadResp              4611                       # Transaction distribution
system.tol2bus.trans_dist::WritebackDirty     10521289                       # Transaction distribution
system.tol2bus.trans_dist::WritebackClean          136                       # Transaction distribution
system.tol2bus.trans_dist::CleanEvict            4225                       # Transaction distribution
system.tol2bus.trans_dist::ReadExReq          5266378                       # Transaction distribution
system.tol2bus.trans_dist::ReadExResp         5266378                       # Transaction distribution
system.tol2bus.trans_dist::ReadCleanReq           646                       # Transaction distribution
system.tol2bus.trans_dist::ReadSharedReq         3965                       # Transaction distribution
system.tol2bus.pkt_count_system.cpu.icache.mem_side_port::system.l2.cpu_side_port         1428                       # Packet count per connected requestor and responder (bytes)
system.tol2bus.pkt_count_system.cpu.dcache.mem_side_port::system.l2.cpu_side_port     15810517                       # Packet count per connected requestor and responder (bytes)
system.tol2bus.pkt_count::total              15811945                       # Packet count per connected requestor and responder (bytes)
system.tol2bus.pkt_size_system.cpu.icache.mem_side_port::system.l2.cpu_side_port        50048                       # Cumulative packet size per connected requestor and responder (bytes)
system.tol2bus.pkt_size_system.cpu.dcache.mem_side_port::system.l2.cpu_side_port    674355392                       # Cumulative packet size per connected requestor and responder (bytes)
system.tol2bus.pkt_size::total              674405440                       # Cumulative packet size per connected requestor and responder (bytes)
system.tol2bus.snoops                         5255683                       # Total snoops (count)
system.tol2bus.snoopTraffic                 336309056                       # Total snoop traffic (bytes)
system.tol2bus.snoop_fanout::samples         10526672                       # Request fanout histogram
system.tol2bus.snoop_fanout::mean            0.000102                       # Request fanout histogram
system.tol2bus.snoop_fanout::stdev           0.010110                       # Request fanout histogram
system.tol2bus.snoop_fanout::underflows             0      0.00%      0.00% # Request fanout histogram
system.tol2bus.snoop_fanout::0               10525596     99.99%     99.99% # Request fanout histogram
system.tol2bus.snoop_fanout::1                   1076      0.01%    100.00% # Request fanout histogram
system.tol2bus.snoop_fanout::2                      0      0.00%    100.00% # Request fanout histogram
system.tol2bus.snoop_fanout::overflows              0      0.00%    100.00% # Request fanout histogram
system.tol2bus.snoop_fanout::min_value              0                       # Request fanout histogram
system.tol2bus.snoop_fanout::max_value              1                       # Request fanout histogram
system.tol2bus.snoop_fanout::total           10526672                       # Request fanout histogram
system.tol2bus.power_state.pwrStateResidencyTicks::UNDEFINED 705653005000                       # Cumulative time (in ticks) in various power states
system.tol2bus.reqLayer0.occupancy        21074148000                       # Layer occupancy (ticks)
system.tol2bus.reqLayer0.utilization              3.0                       # Layer utilization (%)
system.tol2bus.respLayer0.occupancy           1938999                       # Layer occupancy (ticks)
system.tol2bus.respLayer0.utilization             0.0                       # Layer utilization (%)
system.tol2bus.respLayer1.occupancy       15811032996                       # Layer occupancy (ticks)
system.tol2bus.respLayer1.utilization             2.2                       # Layer utilization (%)
system.voltage_domain.voltage                       1                       # Voltage in Volts

---------- End Simulation Statistics   ----------
