
---------- Begin Simulation Statistics ----------
final_tick                                   50704000                       # Number of ticks from beginning of simulation (restored from checkpoints and never reset)
host_inst_rate                                  90398                       # Simulator instruction rate (inst/s)
host_mem_usage                                 655720                       # Number of bytes of host memory used
host_op_rate                                   107366                       # Simulator op (including micro ops) rate (op/s)
host_seconds                                     0.39                       # Real time elapsed on the host
host_tick_rate                              129639106                       # Simulator tick rate (ticks/s)
sim_freq                                 1000000000000                       # Frequency of simulated ticks
sim_insts                                       35298                       # Number of instructions simulated
sim_ops                                         41986                       # Number of ops (including micro ops) simulated
sim_seconds                                  0.000051                       # Number of seconds simulated
sim_ticks                                    50704000                       # Number of ticks simulated
system.cpu.Branches                              7529                       # Number of branches fetched
system.cpu.committedInsts                       35298                       # Number of instructions committed
system.cpu.committedOps                         41986                       # Number of ops (including micro ops) committed
system.cpu.idle_fraction                     0.000000                       # Percentage of idle cycles
system.cpu.not_idle_fraction                 1.000000                       # Percentage of non-idle cycles
system.cpu.numCycles                           253520                       # number of cpu cycles simulated
system.cpu.numWorkItemsCompleted                    0                       # number of work items this cpu completed
system.cpu.numWorkItemsStarted                      0                       # number of work items this cpu started
system.cpu.num_busy_cycles               253519.995000                       # Number of busy cycles
system.cpu.num_cc_register_reads               146533                       # number of times the CC registers were read
system.cpu.num_cc_register_writes               21634                       # number of times the CC registers were written
system.cpu.num_conditional_control_insts         5307                       # number of instructions that are conditional controls
system.cpu.num_fp_alu_accesses                      0                       # Number of float alu accesses
system.cpu.num_fp_insts                             0                       # number of float instructions
system.cpu.num_fp_register_reads                    0                       # number of times the floating registers were read
system.cpu.num_fp_register_writes                   0                       # number of times the floating registers were written
system.cpu.num_func_calls                        1675                       # number of times a function call or return occured
system.cpu.num_idle_cycles                   0.005000                       # Number of idle cycles
system.cpu.num_int_alu_accesses                 36022                       # Number of integer alu accesses
system.cpu.num_int_insts                        36022                       # number of integer instructions
system.cpu.num_int_register_reads               59048                       # number of times the integer registers were read
system.cpu.num_int_register_writes              25866                       # number of times the integer registers were written
system.cpu.num_load_insts                        7218                       # Number of load instructions
system.cpu.num_mem_refs                         13630                       # number of memory refs
system.cpu.num_store_insts                       6412                       # Number of store instructions
system.cpu.num_vec_alu_accesses                     0                       # Number of vector alu accesses
system.cpu.num_vec_insts                            0                       # number of vector instructions
system.cpu.num_vec_register_reads                  56                       # number of times the vector registers were read
system.cpu.num_vec_register_writes                 27                       # number of times the vector registers were written
system.cpu.op_class::No_OpClass                     0      0.00%      0.00% # Class of executed instruction
system.cpu.op_class::IntAlu                     28379     67.19%     67.19% # Class of executed instruction
system.cpu.op_class::IntMult                      209      0.49%     67.68% # Class of executed instruction
system.cpu.op_class::IntDiv                         0      0.00%     67.68% # Class of executed instruction
system.cpu.op_class::FloatAdd                       0      0.00%     67.68% # Class of executed instruction
system.cpu.op_class::FloatCmp                       0      0.00%     67.68% # Class of executed instruction
system.cpu.op_class::FloatCvt                       0      0.00%     67.68% # Class of executed instruction
system.cpu.op_class::FloatMult                      0      0.00%     67.68% # Class of executed instruction
system.cpu.op_class::FloatMultAcc                   0      0.00%     67.68% # Class of executed instruction
system.cpu.op_class::FloatDiv                       0      0.00%     67.68% # Class of executed instruction
system.cpu.op_class::FloatMisc                      0      0.00%     67.68% # Class of executed instruction
system.cpu.op_class::FloatSqrt                      0      0.00%     67.68% # Class of executed instruction
system.cpu.op_class::SimdAdd                        0      0.00%     67.68% # Class of executed instruction
system.cpu.op_class::SimdAddAcc                     0      0.00%     67.68% # Class of executed instruction
system.cpu.op_class::SimdAlu                        0      0.00%     67.68% # Class of executed instruction
system.cpu.op_class::SimdCmp                        0      0.00%     67.68% # Class of executed instruction
system.cpu.op_class::SimdCvt                        0      0.00%     67.68% # Class of executed instruction
system.cpu.op_class::SimdMisc                       0      0.00%     67.68% # Class of executed instruction
system.cpu.op_class::SimdMult                       0      0.00%     67.68% # Class of executed instruction
system.cpu.op_class::SimdMultAcc                    0      0.00%     67.68% # Class of executed instruction
system.cpu.op_class::SimdShift                      0      0.00%     67.68% # Class of executed instruction
system.cpu.op_class::SimdShiftAcc                   0      0.00%     67.68% # Class of executed instruction
system.cpu.op_class::SimdDiv                        0      0.00%     67.68% # Class of executed instruction
system.cpu.op_class::SimdSqrt                       0      0.00%     67.68% # Class of executed instruction
system.cpu.op_class::SimdFloatAdd                   0      0.00%     67.68% # Class of executed instruction
system.cpu.op_class::SimdFloatAlu                   0      0.00%     67.68% # Class of executed instruction
system.cpu.op_class::SimdFloatCmp                   0      0.00%     67.68% # Class of executed instruction
system.cpu.op_class::SimdFloatCvt                   0      0.00%     67.68% # Class of executed instruction
system.cpu.op_class::SimdFloatDiv                   0      0.00%     67.68% # Class of executed instruction
system.cpu.op_class::SimdFloatMisc                 21      0.05%     67.73% # Class of executed instruction
system.cpu.op_class::SimdFloatMult                  0      0.00%     67.73% # Class of executed instruction
system.cpu.op_class::SimdFloatMultAcc               0      0.00%     67.73% # Class of executed instruction
system.cpu.op_class::SimdFloatSqrt                  0      0.00%     67.73% # Class of executed instruction
system.cpu.op_class::SimdReduceAdd                  0      0.00%     67.73% # Class of executed instruction
system.cpu.op_class::SimdReduceAlu                  0      0.00%     67.73% # Class of executed instruction
system.cpu.op_class::SimdReduceCmp                  0      0.00%     67.73% # Class of executed instruction
system.cpu.op_class::SimdFloatReduceAdd             0      0.00%     67.73% # Class of executed instruction
system.cpu.op_class::SimdFloatReduceCmp             0      0.00%     67.73% # Class of executed instruction
system.cpu.op_class::SimdAes                        0      0.00%     67.73% # Class of executed instruction
system.cpu.op_class::SimdAesMix                     0      0.00%     67.73% # Class of executed instruction
system.cpu.op_class::SimdSha1Hash                   0      0.00%     67.73% # Class of executed instruction
system.cpu.op_class::SimdSha1Hash2                  0      0.00%     67.73% # Class of executed instruction
system.cpu.op_class::SimdSha256Hash                 0      0.00%     67.73% # Class of executed instruction
system.cpu.op_class::SimdSha256Hash2                0      0.00%     67.73% # Class of executed instruction
system.cpu.op_class::SimdShaSigma2                  0      0.00%     67.73% # Class of executed instruction
system.cpu.op_class::SimdShaSigma3                  0      0.00%     67.73% # Class of executed instruction
system.cpu.op_class::SimdPredAlu                    0      0.00%     67.73% # Class of executed instruction
system.cpu.op_class::MemRead                     7218     17.09%     84.82% # Class of executed instruction
system.cpu.op_class::MemWrite                    6412     15.18%    100.00% # Class of executed instruction
system.cpu.op_class::FloatMemRead                   0      0.00%    100.00% # Class of executed instruction
system.cpu.op_class::FloatMemWrite                  0      0.00%    100.00% # Class of executed instruction
system.cpu.op_class::IprAccess                      0      0.00%    100.00% # Class of executed instruction
system.cpu.op_class::InstPrefetch                   0      0.00%    100.00% # Class of executed instruction
system.cpu.op_class::total                      42239                       # Class of executed instruction
system.cpu.workload.numSyscalls                    23                       # Number of system calls
system.membus.snoop_filter.hit_multi_requests            4                       # Number of requests hitting in the snoop filter with multiple (>1) holders of the requested data.
system.membus.snoop_filter.hit_multi_snoops            0                       # Number of snoops hitting in the snoop filter with multiple (>1) holders of the requested data.
system.membus.snoop_filter.hit_single_requests           86                       # Number of requests hitting in the snoop filter with a single holder of the requested data.
system.membus.snoop_filter.hit_single_snoops            0                       # Number of snoops hitting in the snoop filter with a single holder of the requested data.
system.membus.snoop_filter.tot_requests           594                       # Total number of requests made to the snoop filter.
system.membus.snoop_filter.tot_snoops               0                       # Total number of snoops made to the snoop filter.
system.clk_domain.clock                          1000                       # Clock period in ticks
system.cpu.dcache.demand_hits::.cpu.data        13079                       # number of demand (read+write) hits
system.cpu.dcache.demand_hits::total            13079                       # number of demand (read+write) hits
system.cpu.dcache.overall_hits::.cpu.data        13107                       # number of overall hits
system.cpu.dcache.overall_hits::total           13107                       # number of overall hits
system.cpu.dcache.demand_misses::.cpu.data          171                       # number of demand (read+write) misses
system.cpu.dcache.demand_misses::total            171                       # number of demand (read+write) misses
system.cpu.dcache.overall_misses::.cpu.data          185                       # number of overall misses
system.cpu.dcache.overall_misses::total           185                       # number of overall misses
system.cpu.dcache.demand_miss_latency::.cpu.data      9460800                       # number of demand (read+write) miss cycles
system.cpu.dcache.demand_miss_latency::total      9460800                       # number of demand (read+write) miss cycles
system.cpu.dcache.overall_miss_latency::.cpu.data      9460800                       # number of overall miss cycles
system.cpu.dcache.overall_miss_latency::total      9460800                       # number of overall miss cycles
system.cpu.dcache.demand_accesses::.cpu.data        13250                       # number of demand (read+write) accesses
system.cpu.dcache.demand_accesses::total        13250                       # number of demand (read+write) accesses
system.cpu.dcache.overall_accesses::.cpu.data        13292                       # number of overall (read+write) accesses
system.cpu.dcache.overall_accesses::total        13292                       # number of overall (read+write) accesses
system.cpu.dcache.demand_miss_rate::.cpu.data     0.012906                       # miss rate for demand accesses
system.cpu.dcache.demand_miss_rate::total     0.012906                       # miss rate for demand accesses
system.cpu.dcache.overall_miss_rate::.cpu.data     0.013918                       # miss rate for overall accesses
system.cpu.dcache.overall_miss_rate::total     0.013918                       # miss rate for overall accesses
system.cpu.dcache.demand_avg_miss_latency::.cpu.data 55326.315789                       # average overall miss latency
system.cpu.dcache.demand_avg_miss_latency::total 55326.315789                       # average overall miss latency
system.cpu.dcache.overall_avg_miss_latency::.cpu.data 51139.459459                       # average overall miss latency
system.cpu.dcache.overall_avg_miss_latency::total 51139.459459                       # average overall miss latency
system.cpu.dcache.blocked_cycles::no_mshrs            0                       # number of cycles access was blocked
system.cpu.dcache.blocked_cycles::no_targets            0                       # number of cycles access was blocked
system.cpu.dcache.blocked::no_mshrs                 0                       # number of cycles access was blocked
system.cpu.dcache.blocked::no_targets               0                       # number of cycles access was blocked
system.cpu.dcache.avg_blocked_cycles::no_mshrs          nan                       # average number of cycles each access was blocked
system.cpu.dcache.avg_blocked_cycles::no_targets          nan                       # average number of cycles each access was blocked
system.cpu.dcache.demand_mshr_hits::.cpu.data            1                       # number of demand (read+write) MSHR hits
system.cpu.dcache.demand_mshr_hits::total            1                       # number of demand (read+write) MSHR hits
system.cpu.dcache.overall_mshr_hits::.cpu.data            1                       # number of overall MSHR hits
system.cpu.dcache.overall_mshr_hits::total            1                       # number of overall MSHR hits
system.cpu.dcache.demand_mshr_misses::.cpu.data          170                       # number of demand (read+write) MSHR misses
system.cpu.dcache.demand_mshr_misses::total          170                       # number of demand (read+write) MSHR misses
system.cpu.dcache.overall_mshr_misses::.cpu.data          180                       # number of overall MSHR misses
system.cpu.dcache.overall_mshr_misses::total          180                       # number of overall MSHR misses
system.cpu.dcache.demand_mshr_miss_latency::.cpu.data      9333600                       # number of demand (read+write) MSHR miss cycles
system.cpu.dcache.demand_mshr_miss_latency::total      9333600                       # number of demand (read+write) MSHR miss cycles
system.cpu.dcache.overall_mshr_miss_latency::.cpu.data      9920000                       # number of overall MSHR miss cycles
system.cpu.dcache.overall_mshr_miss_latency::total      9920000                       # number of overall MSHR miss cycles
system.cpu.dcache.demand_mshr_miss_rate::.cpu.data     0.012830                       # mshr miss rate for demand accesses
system.cpu.dcache.demand_mshr_miss_rate::total     0.012830                       # mshr miss rate for demand accesses
system.cpu.dcache.overall_mshr_miss_rate::.cpu.data     0.013542                       # mshr miss rate for overall accesses
system.cpu.dcache.overall_mshr_miss_rate::total     0.013542                       # mshr miss rate for overall accesses
system.cpu.dcache.demand_avg_mshr_miss_latency::.cpu.data 54903.529412                       # average overall mshr miss latency
system.cpu.dcache.demand_avg_mshr_miss_latency::total 54903.529412                       # average overall mshr miss latency
system.cpu.dcache.overall_avg_mshr_miss_latency::.cpu.data 55111.111111                       # average overall mshr miss latency
system.cpu.dcache.overall_avg_mshr_miss_latency::total 55111.111111                       # average overall mshr miss latency
system.cpu.dcache.replacements                      3                       # number of replacements
system.cpu.dcache.ReadReq_hits::.cpu.data         6924                       # number of ReadReq hits
system.cpu.dcache.ReadReq_hits::total            6924                       # number of ReadReq hits
system.cpu.dcache.ReadReq_misses::.cpu.data           95                       # number of ReadReq misses
system.cpu.dcache.ReadReq_misses::total            95                       # number of ReadReq misses
system.cpu.dcache.ReadReq_miss_latency::.cpu.data      5304400                       # number of ReadReq miss cycles
system.cpu.dcache.ReadReq_miss_latency::total      5304400                       # number of ReadReq miss cycles
system.cpu.dcache.ReadReq_accesses::.cpu.data         7019                       # number of ReadReq accesses(hits+misses)
system.cpu.dcache.ReadReq_accesses::total         7019                       # number of ReadReq accesses(hits+misses)
system.cpu.dcache.ReadReq_miss_rate::.cpu.data     0.013535                       # miss rate for ReadReq accesses
system.cpu.dcache.ReadReq_miss_rate::total     0.013535                       # miss rate for ReadReq accesses
system.cpu.dcache.ReadReq_avg_miss_latency::.cpu.data 55835.789474                       # average ReadReq miss latency
system.cpu.dcache.ReadReq_avg_miss_latency::total 55835.789474                       # average ReadReq miss latency
system.cpu.dcache.ReadReq_mshr_hits::.cpu.data            1                       # number of ReadReq MSHR hits
system.cpu.dcache.ReadReq_mshr_hits::total            1                       # number of ReadReq MSHR hits
system.cpu.dcache.ReadReq_mshr_misses::.cpu.data           94                       # number of ReadReq MSHR misses
system.cpu.dcache.ReadReq_mshr_misses::total           94                       # number of ReadReq MSHR misses
system.cpu.dcache.ReadReq_mshr_miss_latency::.cpu.data      5207600                       # number of ReadReq MSHR miss cycles
system.cpu.dcache.ReadReq_mshr_miss_latency::total      5207600                       # number of ReadReq MSHR miss cycles
system.cpu.dcache.ReadReq_mshr_miss_rate::.cpu.data     0.013392                       # mshr miss rate for ReadReq accesses
system.cpu.dcache.ReadReq_mshr_miss_rate::total     0.013392                       # mshr miss rate for ReadReq accesses
system.cpu.dcache.ReadReq_avg_mshr_miss_latency::.cpu.data        55400                       # average ReadReq mshr miss latency
system.cpu.dcache.ReadReq_avg_mshr_miss_latency::total        55400                       # average ReadReq mshr miss latency
system.cpu.dcache.WriteReq_hits::.cpu.data         6155                       # number of WriteReq hits
system.cpu.dcache.WriteReq_hits::total           6155                       # number of WriteReq hits
system.cpu.dcache.WriteReq_misses::.cpu.data           76                       # number of WriteReq misses
system.cpu.dcache.WriteReq_misses::total           76                       # number of WriteReq misses
system.cpu.dcache.WriteReq_miss_latency::.cpu.data      4156400                       # number of WriteReq miss cycles
system.cpu.dcache.WriteReq_miss_latency::total      4156400                       # number of WriteReq miss cycles
system.cpu.dcache.WriteReq_accesses::.cpu.data         6231                       # number of WriteReq accesses(hits+misses)
system.cpu.dcache.WriteReq_accesses::total         6231                       # number of WriteReq accesses(hits+misses)
system.cpu.dcache.WriteReq_miss_rate::.cpu.data     0.012197                       # miss rate for WriteReq accesses
system.cpu.dcache.WriteReq_miss_rate::total     0.012197                       # miss rate for WriteReq accesses
system.cpu.dcache.WriteReq_avg_miss_latency::.cpu.data 54689.473684                       # average WriteReq miss latency
system.cpu.dcache.WriteReq_avg_miss_latency::total 54689.473684                       # average WriteReq miss latency
system.cpu.dcache.WriteReq_mshr_misses::.cpu.data           76                       # number of WriteReq MSHR misses
system.cpu.dcache.WriteReq_mshr_misses::total           76                       # number of WriteReq MSHR misses
system.cpu.dcache.WriteReq_mshr_miss_latency::.cpu.data      4126000                       # number of WriteReq MSHR miss cycles
system.cpu.dcache.WriteReq_mshr_miss_latency::total      4126000                       # number of WriteReq MSHR miss cycles
system.cpu.dcache.WriteReq_mshr_miss_rate::.cpu.data     0.012197                       # mshr miss rate for WriteReq accesses
system.cpu.dcache.WriteReq_mshr_miss_rate::total     0.012197                       # mshr miss rate for WriteReq accesses
system.cpu.dcache.WriteReq_avg_mshr_miss_latency::.cpu.data 54289.473684                       # average WriteReq mshr miss latency
system.cpu.dcache.WriteReq_avg_mshr_miss_latency::total 54289.473684                       # average WriteReq mshr miss latency
system.cpu.dcache.SoftPFReq_hits::.cpu.data           28                       # number of SoftPFReq hits
system.cpu.dcache.SoftPFReq_hits::total            28                       # number of SoftPFReq hits
system.cpu.dcache.SoftPFReq_misses::.cpu.data           14                       # number of SoftPFReq misses
system.cpu.dcache.SoftPFReq_misses::total           14                       # number of SoftPFReq misses
system.cpu.dcache.SoftPFReq_accesses::.cpu.data           42                       # number of SoftPFReq accesses(hits+misses)
system.cpu.dcache.SoftPFReq_accesses::total           42                       # number of SoftPFReq accesses(hits+misses)
system.cpu.dcache.SoftPFReq_miss_rate::.cpu.data     0.333333                       # miss rate for SoftPFReq accesses
system.cpu.dcache.SoftPFReq_miss_rate::total     0.333333                       # miss rate for SoftPFReq accesses
system.cpu.dcache.SoftPFReq_mshr_misses::.cpu.data           10                       # number of SoftPFReq MSHR misses
system.cpu.dcache.SoftPFReq_mshr_misses::total           10                       # number of SoftPFReq MSHR misses
system.cpu.dcache.SoftPFReq_mshr_miss_latency::.cpu.data       586400                       # number of SoftPFReq MSHR miss cycles
system.cpu.dcache.SoftPFReq_mshr_miss_latency::total       586400                       # number of SoftPFReq MSHR miss cycles
system.cpu.dcache.SoftPFReq_mshr_miss_rate::.cpu.data     0.238095                       # mshr miss rate for SoftPFReq accesses
system.cpu.dcache.SoftPFReq_mshr_miss_rate::total     0.238095                       # mshr miss rate for SoftPFReq accesses
system.cpu.dcache.SoftPFReq_avg_mshr_miss_latency::.cpu.data        58640                       # average SoftPFReq mshr miss latency
system.cpu.dcache.SoftPFReq_avg_mshr_miss_latency::total        58640                       # average SoftPFReq mshr miss latency
system.cpu.dcache.LoadLockedReq_hits::.cpu.data           79                       # number of LoadLockedReq hits
system.cpu.dcache.LoadLockedReq_hits::total           79                       # number of LoadLockedReq hits
system.cpu.dcache.LoadLockedReq_misses::.cpu.data            1                       # number of LoadLockedReq misses
system.cpu.dcache.LoadLockedReq_misses::total            1                       # number of LoadLockedReq misses
system.cpu.dcache.LoadLockedReq_miss_latency::.cpu.data        49800                       # number of LoadLockedReq miss cycles
system.cpu.dcache.LoadLockedReq_miss_latency::total        49800                       # number of LoadLockedReq miss cycles
system.cpu.dcache.LoadLockedReq_accesses::.cpu.data           80                       # number of LoadLockedReq accesses(hits+misses)
system.cpu.dcache.LoadLockedReq_accesses::total           80                       # number of LoadLockedReq accesses(hits+misses)
system.cpu.dcache.LoadLockedReq_miss_rate::.cpu.data     0.012500                       # miss rate for LoadLockedReq accesses
system.cpu.dcache.LoadLockedReq_miss_rate::total     0.012500                       # miss rate for LoadLockedReq accesses
system.cpu.dcache.LoadLockedReq_avg_miss_latency::.cpu.data        49800                       # average LoadLockedReq miss latency
system.cpu.dcache.LoadLockedReq_avg_miss_latency::total        49800                       # average LoadLockedReq miss latency
system.cpu.dcache.LoadLockedReq_mshr_misses::.cpu.data            1                       # number of LoadLockedReq MSHR misses
system.cpu.dcache.LoadLockedReq_mshr_misses::total            1                       # number of LoadLockedReq MSHR misses
system.cpu.dcache.LoadLockedReq_mshr_miss_latency::.cpu.data        49400                       # number of LoadLockedReq MSHR miss cycles
system.cpu.dcache.LoadLockedReq_mshr_miss_latency::total        49400                       # number of LoadLockedReq MSHR miss cycles
system.cpu.dcache.LoadLockedReq_mshr_miss_rate::.cpu.data     0.012500                       # mshr miss rate for LoadLockedReq accesses
system.cpu.dcache.LoadLockedReq_mshr_miss_rate::total     0.012500                       # mshr miss rate for LoadLockedReq accesses
system.cpu.dcache.LoadLockedReq_avg_mshr_miss_latency::.cpu.data        49400                       # average LoadLockedReq mshr miss latency
system.cpu.dcache.LoadLockedReq_avg_mshr_miss_latency::total        49400                       # average LoadLockedReq mshr miss latency
system.cpu.dcache.StoreCondReq_hits::.cpu.data           80                       # number of StoreCondReq hits
system.cpu.dcache.StoreCondReq_hits::total           80                       # number of StoreCondReq hits
system.cpu.dcache.StoreCondReq_accesses::.cpu.data           80                       # number of StoreCondReq accesses(hits+misses)
system.cpu.dcache.StoreCondReq_accesses::total           80                       # number of StoreCondReq accesses(hits+misses)
system.cpu.dcache.power_state.pwrStateResidencyTicks::UNDEFINED     50704000                       # Cumulative time (in ticks) in various power states
system.cpu.dcache.tags.tagsinuse           119.675786                       # Cycle average of tags in use
system.cpu.dcache.tags.total_refs               13447                       # Total number of references to valid blocks.
system.cpu.dcache.tags.sampled_refs               181                       # Sample count of references to valid blocks.
system.cpu.dcache.tags.avg_refs             74.292818                       # Average number of references to valid blocks.
system.cpu.dcache.tags.warmup_cycle            146000                       # Cycle when the warmup percentage was hit.
system.cpu.dcache.tags.occ_blocks::.cpu.data   119.675786                       # Average occupied blocks per requestor
system.cpu.dcache.tags.occ_percent::.cpu.data     0.116871                       # Average percentage of cache occupancy
system.cpu.dcache.tags.occ_percent::total     0.116871                       # Average percentage of cache occupancy
system.cpu.dcache.tags.occ_task_id_blocks::1024          178                       # Occupied blocks per task id
system.cpu.dcache.tags.age_task_id_blocks_1024::0           13                       # Occupied blocks per task id
system.cpu.dcache.tags.age_task_id_blocks_1024::1          165                       # Occupied blocks per task id
system.cpu.dcache.tags.occ_task_id_percent::1024     0.173828                       # Percentage of cache occupancy per task id
system.cpu.dcache.tags.tag_accesses             27085                       # Number of tag accesses
system.cpu.dcache.tags.data_accesses            27085                       # Number of data accesses
system.cpu.dcache.tags.power_state.pwrStateResidencyTicks::UNDEFINED     50704000                       # Cumulative time (in ticks) in various power states
system.cpu.dtb.instHits                             0                       # ITB inst hits
system.cpu.dtb.instMisses                           0                       # ITB inst misses
system.cpu.dtb.readHits                             0                       # DTB read hits
system.cpu.dtb.readMisses                           0                       # DTB read misses
system.cpu.dtb.writeHits                            0                       # DTB write hits
system.cpu.dtb.writeMisses                          0                       # DTB write misses
system.cpu.dtb.inserts                              0                       # Number of times an entry is inserted into the TLB
system.cpu.dtb.flushTlb                             0                       # Number of times complete TLB was flushed
system.cpu.dtb.flushTlbMva                          0                       # Number of times TLB was flushed by MVA
system.cpu.dtb.flushTlbMvaAsid                      0                       # Number of times TLB was flushed by MVA & ASID
system.cpu.dtb.flushTlbAsid                         0                       # Number of times TLB was flushed by ASID
system.cpu.dtb.flushedEntries                       0                       # Number of entries that have been flushed from TLB
system.cpu.dtb.alignFaults                          0                       # Number of TLB faults due to alignment restrictions
system.cpu.dtb.prefetchFaults                       0                       # Number of TLB faults due to prefetch
system.cpu.dtb.domainFaults                         0                       # Number of TLB faults due to domain restrictions
system.cpu.dtb.permsFaults                          0                       # Number of TLB faults due to permissions restrictions
system.cpu.dtb.readAccesses                         0                       # DTB read accesses
system.cpu.dtb.writeAccesses                        0                       # DTB write accesses
system.cpu.dtb.instAccesses                         0                       # ITB inst accesses
system.cpu.dtb.hits                                 0                       # Total TLB (inst and data) hits
system.cpu.dtb.misses                               0                       # Total TLB (inst and data) misses
system.cpu.dtb.accesses                             0                       # Total TLB (inst and data) accesses
system.cpu.dtb.stage2_mmu.stage2_tlb.instHits            0                       # ITB inst hits
system.cpu.dtb.stage2_mmu.stage2_tlb.instMisses            0                       # ITB inst misses
system.cpu.dtb.stage2_mmu.stage2_tlb.readHits            0                       # DTB read hits
system.cpu.dtb.stage2_mmu.stage2_tlb.readMisses            0                       # DTB read misses
system.cpu.dtb.stage2_mmu.stage2_tlb.writeHits            0                       # DTB write hits
system.cpu.dtb.stage2_mmu.stage2_tlb.writeMisses            0                       # DTB write misses
system.cpu.dtb.stage2_mmu.stage2_tlb.inserts            0                       # Number of times an entry is inserted into the TLB
system.cpu.dtb.stage2_mmu.stage2_tlb.flushTlb            0                       # Number of times complete TLB was flushed
system.cpu.dtb.stage2_mmu.stage2_tlb.flushTlbMva            0                       # Number of times TLB was flushed by MVA
system.cpu.dtb.stage2_mmu.stage2_tlb.flushTlbMvaAsid            0                       # Number of times TLB was flushed by MVA & ASID
system.cpu.dtb.stage2_mmu.stage2_tlb.flushTlbAsid            0                       # Number of times TLB was flushed by ASID
system.cpu.dtb.stage2_mmu.stage2_tlb.flushedEntries            0                       # Number of entries that have been flushed from TLB
system.cpu.dtb.stage2_mmu.stage2_tlb.alignFaults            0                       # Number of TLB faults due to alignment restrictions
system.cpu.dtb.stage2_mmu.stage2_tlb.prefetchFaults            0                       # Number of TLB faults due to prefetch
system.cpu.dtb.stage2_mmu.stage2_tlb.domainFaults            0                       # Number of TLB faults due to domain restrictions
system.cpu.dtb.stage2_mmu.stage2_tlb.permsFaults            0                       # Number of TLB faults due to permissions restrictions
system.cpu.dtb.stage2_mmu.stage2_tlb.readAccesses            0                       # DTB read accesses
system.cpu.dtb.stage2_mmu.stage2_tlb.writeAccesses            0                       # DTB write accesses
system.cpu.dtb.stage2_mmu.stage2_tlb.instAccesses            0                       # ITB inst accesses
system.cpu.dtb.stage2_mmu.stage2_tlb.hits            0                       # Total TLB (inst and data) hits
system.cpu.dtb.stage2_mmu.stage2_tlb.misses            0                       # Total TLB (inst and data) misses
system.cpu.dtb.stage2_mmu.stage2_tlb.accesses            0                       # Total TLB (inst and data) accesses
system.cpu.dtb.stage2_mmu.stage2_tlb.walker.walks            0                       # Table walker walks requested
system.cpu.dtb.stage2_mmu.stage2_tlb.walker.requestOrigin_Requested::Data            0                       # Table walker requests started/completed, data/inst
system.cpu.dtb.stage2_mmu.stage2_tlb.walker.requestOrigin_Requested::Inst            0                       # Table walker requests started/completed, data/inst
system.cpu.dtb.stage2_mmu.stage2_tlb.walker.requestOrigin_Requested::total            0                       # Table walker requests started/completed, data/inst
system.cpu.dtb.stage2_mmu.stage2_tlb.walker.requestOrigin_Completed::Data            0                       # Table walker requests started/completed, data/inst
system.cpu.dtb.stage2_mmu.stage2_tlb.walker.requestOrigin_Completed::Inst            0                       # Table walker requests started/completed, data/inst
system.cpu.dtb.stage2_mmu.stage2_tlb.walker.requestOrigin_Completed::total            0                       # Table walker requests started/completed, data/inst
system.cpu.dtb.stage2_mmu.stage2_tlb.walker.requestOrigin::total            0                       # Table walker requests started/completed, data/inst
system.cpu.dtb.stage2_mmu.stage2_tlb.walker.power_state.pwrStateResidencyTicks::UNDEFINED     50704000                       # Cumulative time (in ticks) in various power states
system.cpu.dtb.walker.walks                         0                       # Table walker walks requested
system.cpu.dtb.walker.requestOrigin_Requested::Data            0                       # Table walker requests started/completed, data/inst
system.cpu.dtb.walker.requestOrigin_Requested::Inst            0                       # Table walker requests started/completed, data/inst
system.cpu.dtb.walker.requestOrigin_Requested::total            0                       # Table walker requests started/completed, data/inst
system.cpu.dtb.walker.requestOrigin_Completed::Data            0                       # Table walker requests started/completed, data/inst
system.cpu.dtb.walker.requestOrigin_Completed::Inst            0                       # Table walker requests started/completed, data/inst
system.cpu.dtb.walker.requestOrigin_Completed::total            0                       # Table walker requests started/completed, data/inst
system.cpu.dtb.walker.requestOrigin::total            0                       # Table walker requests started/completed, data/inst
system.cpu.dtb.walker.power_state.pwrStateResidencyTicks::UNDEFINED     50704000                       # Cumulative time (in ticks) in various power states
system.cpu.icache.demand_hits::.cpu.inst        40240                       # number of demand (read+write) hits
system.cpu.icache.demand_hits::total            40240                       # number of demand (read+write) hits
system.cpu.icache.overall_hits::.cpu.inst        40240                       # number of overall hits
system.cpu.icache.overall_hits::total           40240                       # number of overall hits
system.cpu.icache.demand_misses::.cpu.inst          338                       # number of demand (read+write) misses
system.cpu.icache.demand_misses::total            338                       # number of demand (read+write) misses
system.cpu.icache.overall_misses::.cpu.inst          338                       # number of overall misses
system.cpu.icache.overall_misses::total           338                       # number of overall misses
system.cpu.icache.demand_miss_latency::.cpu.inst     18742600                       # number of demand (read+write) miss cycles
system.cpu.icache.demand_miss_latency::total     18742600                       # number of demand (read+write) miss cycles
system.cpu.icache.overall_miss_latency::.cpu.inst     18742600                       # number of overall miss cycles
system.cpu.icache.overall_miss_latency::total     18742600                       # number of overall miss cycles
system.cpu.icache.demand_accesses::.cpu.inst        40578                       # number of demand (read+write) accesses
system.cpu.icache.demand_accesses::total        40578                       # number of demand (read+write) accesses
system.cpu.icache.overall_accesses::.cpu.inst        40578                       # number of overall (read+write) accesses
system.cpu.icache.overall_accesses::total        40578                       # number of overall (read+write) accesses
system.cpu.icache.demand_miss_rate::.cpu.inst     0.008330                       # miss rate for demand accesses
system.cpu.icache.demand_miss_rate::total     0.008330                       # miss rate for demand accesses
system.cpu.icache.overall_miss_rate::.cpu.inst     0.008330                       # miss rate for overall accesses
system.cpu.icache.overall_miss_rate::total     0.008330                       # miss rate for overall accesses
system.cpu.icache.demand_avg_miss_latency::.cpu.inst 55451.479290                       # average overall miss latency
system.cpu.icache.demand_avg_miss_latency::total 55451.479290                       # average overall miss latency
system.cpu.icache.overall_avg_miss_latency::.cpu.inst 55451.479290                       # average overall miss latency
system.cpu.icache.overall_avg_miss_latency::total 55451.479290                       # average overall miss latency
system.cpu.icache.blocked_cycles::no_mshrs            0                       # number of cycles access was blocked
system.cpu.icache.blocked_cycles::no_targets            0                       # number of cycles access was blocked
system.cpu.icache.blocked::no_mshrs                 0                       # number of cycles access was blocked
system.cpu.icache.blocked::no_targets               0                       # number of cycles access was blocked
system.cpu.icache.avg_blocked_cycles::no_mshrs          nan                       # average number of cycles each access was blocked
system.cpu.icache.avg_blocked_cycles::no_targets          nan                       # average number of cycles each access was blocked
system.cpu.icache.writebacks::.writebacks           72                       # number of writebacks
system.cpu.icache.writebacks::total                72                       # number of writebacks
system.cpu.icache.demand_mshr_misses::.cpu.inst          338                       # number of demand (read+write) MSHR misses
system.cpu.icache.demand_mshr_misses::total          338                       # number of demand (read+write) MSHR misses
system.cpu.icache.overall_mshr_misses::.cpu.inst          338                       # number of overall MSHR misses
system.cpu.icache.overall_mshr_misses::total          338                       # number of overall MSHR misses
system.cpu.icache.demand_mshr_miss_latency::.cpu.inst     18607400                       # number of demand (read+write) MSHR miss cycles
system.cpu.icache.demand_mshr_miss_latency::total     18607400                       # number of demand (read+write) MSHR miss cycles
system.cpu.icache.overall_mshr_miss_latency::.cpu.inst     18607400                       # number of overall MSHR miss cycles
system.cpu.icache.overall_mshr_miss_latency::total     18607400                       # number of overall MSHR miss cycles
system.cpu.icache.demand_mshr_miss_rate::.cpu.inst     0.008330                       # mshr miss rate for demand accesses
system.cpu.icache.demand_mshr_miss_rate::total     0.008330                       # mshr miss rate for demand accesses
system.cpu.icache.overall_mshr_miss_rate::.cpu.inst     0.008330                       # mshr miss rate for overall accesses
system.cpu.icache.overall_mshr_miss_rate::total     0.008330                       # mshr miss rate for overall accesses
system.cpu.icache.demand_avg_mshr_miss_latency::.cpu.inst 55051.479290                       # average overall mshr miss latency
system.cpu.icache.demand_avg_mshr_miss_latency::total 55051.479290                       # average overall mshr miss latency
system.cpu.icache.overall_avg_mshr_miss_latency::.cpu.inst 55051.479290                       # average overall mshr miss latency
system.cpu.icache.overall_avg_mshr_miss_latency::total 55051.479290                       # average overall mshr miss latency
system.cpu.icache.replacements                     72                       # number of replacements
system.cpu.icache.ReadReq_hits::.cpu.inst        40240                       # number of ReadReq hits
system.cpu.icache.ReadReq_hits::total           40240                       # number of ReadReq hits
system.cpu.icache.ReadReq_misses::.cpu.inst          338                       # number of ReadReq misses
system.cpu.icache.ReadReq_misses::total           338                       # number of ReadReq misses
system.cpu.icache.ReadReq_miss_latency::.cpu.inst     18742600                       # number of ReadReq miss cycles
system.cpu.icache.ReadReq_miss_latency::total     18742600                       # number of ReadReq miss cycles
system.cpu.icache.ReadReq_accesses::.cpu.inst        40578                       # number of ReadReq accesses(hits+misses)
system.cpu.icache.ReadReq_accesses::total        40578                       # number of ReadReq accesses(hits+misses)
system.cpu.icache.ReadReq_miss_rate::.cpu.inst     0.008330                       # miss rate for ReadReq accesses
system.cpu.icache.ReadReq_miss_rate::total     0.008330                       # miss rate for ReadReq accesses
system.cpu.icache.ReadReq_avg_miss_latency::.cpu.inst 55451.479290                       # average ReadReq miss latency
system.cpu.icache.ReadReq_avg_miss_latency::total 55451.479290                       # average ReadReq miss latency
system.cpu.icache.ReadReq_mshr_misses::.cpu.inst          338                       # number of ReadReq MSHR misses
system.cpu.icache.ReadReq_mshr_misses::total          338                       # number of ReadReq MSHR misses
system.cpu.icache.ReadReq_mshr_miss_latency::.cpu.inst     18607400                       # number of ReadReq MSHR miss cycles
system.cpu.icache.ReadReq_mshr_miss_latency::total     18607400                       # number of ReadReq MSHR miss cycles
system.cpu.icache.ReadReq_mshr_miss_rate::.cpu.inst     0.008330                       # mshr miss rate for ReadReq accesses
system.cpu.icache.ReadReq_mshr_miss_rate::total     0.008330                       # mshr miss rate for ReadReq accesses
system.cpu.icache.ReadReq_avg_mshr_miss_latency::.cpu.inst 55051.479290                       # average ReadReq mshr miss latency
system.cpu.icache.ReadReq_avg_mshr_miss_latency::total 55051.479290                       # average ReadReq mshr miss latency
system.cpu.icache.power_state.pwrStateResidencyTicks::UNDEFINED     50704000                       # Cumulative time (in ticks) in various power states
system.cpu.icache.tags.tagsinuse           161.470892                       # Cycle average of tags in use
system.cpu.icache.tags.total_refs               40578                       # Total number of references to valid blocks.
system.cpu.icache.tags.sampled_refs               338                       # Sample count of references to valid blocks.
system.cpu.icache.tags.avg_refs            120.053254                       # Average number of references to valid blocks.
system.cpu.icache.tags.warmup_cycle             77000                       # Cycle when the warmup percentage was hit.
system.cpu.icache.tags.occ_blocks::.cpu.inst   161.470892                       # Average occupied blocks per requestor
system.cpu.icache.tags.occ_percent::.cpu.inst     0.315373                       # Average percentage of cache occupancy
system.cpu.icache.tags.occ_percent::total     0.315373                       # Average percentage of cache occupancy
system.cpu.icache.tags.occ_task_id_blocks::1024          266                       # Occupied blocks per task id
system.cpu.icache.tags.age_task_id_blocks_1024::0           43                       # Occupied blocks per task id
system.cpu.icache.tags.age_task_id_blocks_1024::1          223                       # Occupied blocks per task id
system.cpu.icache.tags.occ_task_id_percent::1024     0.519531                       # Percentage of cache occupancy per task id
system.cpu.icache.tags.tag_accesses             81494                       # Number of tag accesses
system.cpu.icache.tags.data_accesses            81494                       # Number of data accesses
system.cpu.icache.tags.power_state.pwrStateResidencyTicks::UNDEFINED     50704000                       # Cumulative time (in ticks) in various power states
system.cpu.itb.instHits                             0                       # ITB inst hits
system.cpu.itb.instMisses                           0                       # ITB inst misses
system.cpu.itb.readHits                             0                       # DTB read hits
system.cpu.itb.readMisses                           0                       # DTB read misses
system.cpu.itb.writeHits                            0                       # DTB write hits
system.cpu.itb.writeMisses                          0                       # DTB write misses
system.cpu.itb.inserts                              0                       # Number of times an entry is inserted into the TLB
system.cpu.itb.flushTlb                             0                       # Number of times complete TLB was flushed
system.cpu.itb.flushTlbMva                          0                       # Number of times TLB was flushed by MVA
system.cpu.itb.flushTlbMvaAsid                      0                       # Number of times TLB was flushed by MVA & ASID
system.cpu.itb.flushTlbAsid                         0                       # Number of times TLB was flushed by ASID
system.cpu.itb.flushedEntries                       0                       # Number of entries that have been flushed from TLB
system.cpu.itb.alignFaults                          0                       # Number of TLB faults due to alignment restrictions
system.cpu.itb.prefetchFaults                       0                       # Number of TLB faults due to prefetch
system.cpu.itb.domainFaults                         0                       # Number of TLB faults due to domain restrictions
system.cpu.itb.permsFaults                          0                       # Number of TLB faults due to permissions restrictions
system.cpu.itb.readAccesses                         0                       # DTB read accesses
system.cpu.itb.writeAccesses                        0                       # DTB write accesses
system.cpu.itb.instAccesses                         0                       # ITB inst accesses
system.cpu.itb.hits                                 0                       # Total TLB (inst and data) hits
system.cpu.itb.misses                               0                       # Total TLB (inst and data) misses
system.cpu.itb.accesses                             0                       # Total TLB (inst and data) accesses
system.cpu.itb.stage2_mmu.stage2_tlb.instHits            0                       # ITB inst hits
system.cpu.itb.stage2_mmu.stage2_tlb.instMisses            0                       # ITB inst misses
system.cpu.itb.stage2_mmu.stage2_tlb.readHits            0                       # DTB read hits
system.cpu.itb.stage2_mmu.stage2_tlb.readMisses            0                       # DTB read misses
system.cpu.itb.stage2_mmu.stage2_tlb.writeHits            0                       # DTB write hits
system.cpu.itb.stage2_mmu.stage2_tlb.writeMisses            0                       # DTB write misses
system.cpu.itb.stage2_mmu.stage2_tlb.inserts            0                       # Number of times an entry is inserted into the TLB
system.cpu.itb.stage2_mmu.stage2_tlb.flushTlb            0                       # Number of times complete TLB was flushed
system.cpu.itb.stage2_mmu.stage2_tlb.flushTlbMva            0                       # Number of times TLB was flushed by MVA
system.cpu.itb.stage2_mmu.stage2_tlb.flushTlbMvaAsid            0                       # Number of times TLB was flushed by MVA & ASID
system.cpu.itb.stage2_mmu.stage2_tlb.flushTlbAsid            0                       # Number of times TLB was flushed by ASID
system.cpu.itb.stage2_mmu.stage2_tlb.flushedEntries            0                       # Number of entries that have been flushed from TLB
system.cpu.itb.stage2_mmu.stage2_tlb.alignFaults            0                       # Number of TLB faults due to alignment restrictions
system.cpu.itb.stage2_mmu.stage2_tlb.prefetchFaults            0                       # Number of TLB faults due to prefetch
system.cpu.itb.stage2_mmu.stage2_tlb.domainFaults            0                       # Number of TLB faults due to domain restrictions
system.cpu.itb.stage2_mmu.stage2_tlb.permsFaults            0                       # Number of TLB faults due to permissions restrictions
system.cpu.itb.stage2_mmu.stage2_tlb.readAccesses            0                       # DTB read accesses
system.cpu.itb.stage2_mmu.stage2_tlb.writeAccesses            0                       # DTB write accesses
system.cpu.itb.stage2_mmu.stage2_tlb.instAccesses            0                       # ITB inst accesses
system.cpu.itb.stage2_mmu.stage2_tlb.hits            0                       # Total TLB (inst and data) hits
system.cpu.itb.stage2_mmu.stage2_tlb.misses            0                       # Total TLB (inst and data) misses
system.cpu.itb.stage2_mmu.stage2_tlb.accesses            0                       # Total TLB (inst and data) accesses
system.cpu.itb.stage2_mmu.stage2_tlb.walker.walks            0                       # Table walker walks requested
system.cpu.itb.stage2_mmu.stage2_tlb.walker.requestOrigin_Requested::Data            0                       # Table walker requests started/completed, data/inst
system.cpu.itb.stage2_mmu.stage2_tlb.walker.requestOrigin_Requested::Inst            0                       # Table walker requests started/completed, data/inst
system.cpu.itb.stage2_mmu.stage2_tlb.walker.requestOrigin_Requested::total            0                       # Table walker requests started/completed, data/inst
system.cpu.itb.stage2_mmu.stage2_tlb.walker.requestOrigin_Completed::Data            0                       # Table walker requests started/completed, data/inst
system.cpu.itb.stage2_mmu.stage2_tlb.walker.requestOrigin_Completed::Inst            0                       # Table walker requests started/completed, data/inst
system.cpu.itb.stage2_mmu.stage2_tlb.walker.requestOrigin_Completed::total            0                       # Table walker requests started/completed, data/inst
system.cpu.itb.stage2_mmu.stage2_tlb.walker.requestOrigin::total            0                       # Table walker requests started/completed, data/inst
system.cpu.itb.stage2_mmu.stage2_tlb.walker.power_state.pwrStateResidencyTicks::UNDEFINED     50704000                       # Cumulative time (in ticks) in various power states
system.cpu.itb.walker.walks                         0                       # Table walker walks requested
system.cpu.itb.walker.requestOrigin_Requested::Data            0                       # Table walker requests started/completed, data/inst
system.cpu.itb.walker.requestOrigin_Requested::Inst            0                       # Table walker requests started/completed, data/inst
system.cpu.itb.walker.requestOrigin_Requested::total            0                       # Table walker requests started/completed, data/inst
system.cpu.itb.walker.requestOrigin_Completed::Data            0                       # Table walker requests started/completed, data/inst
system.cpu.itb.walker.requestOrigin_Completed::Inst            0                       # Table walker requests started/completed, data/inst
system.cpu.itb.walker.requestOrigin_Completed::total            0                       # Table walker requests started/completed, data/inst
system.cpu.itb.walker.requestOrigin::total            0                       # Table walker requests started/completed, data/inst
system.cpu.itb.walker.power_state.pwrStateResidencyTicks::UNDEFINED     50704000                       # Cumulative time (in ticks) in various power states
system.cpu.power_state.pwrStateResidencyTicks::ON     50704000                       # Cumulative time (in ticks) in various power states
system.cpu.thread_0.numInsts                        0                       # Number of Instructions committed
system.cpu.thread_0.numOps                          0                       # Number of Ops committed
system.cpu.thread_0.numMemRefs                      0                       # Number of Memory References
system.cpu_clk_domain.clock                       200                       # Clock period in ticks
system.cpu_voltage_domain.voltage                   1                       # Voltage in Volts
system.mem_ctrls.avgPriority_.writebacks::samples        65.00                       # Average QoS priority value for accepted requests
system.mem_ctrls.avgPriority_.cpu.inst::samples       325.00                       # Average QoS priority value for accepted requests
system.mem_ctrls.avgPriority_.cpu.data::samples       180.00                       # Average QoS priority value for accepted requests
system.mem_ctrls.priorityMinLatency      0.000000018750                       # per QoS priority minimum request to response latency (s)
system.mem_ctrls.priorityMaxLatency      0.000060346750                       # per QoS priority maximum request to response latency (s)
system.mem_ctrls.numReadWriteTurnArounds            2                       # Number of turnarounds from READ to WRITE
system.mem_ctrls.numWriteReadTurnArounds            3                       # Number of turnarounds from WRITE to READ
system.mem_ctrls.numStayReadState                1089                       # Number of times bus staying in READ state
system.mem_ctrls.numStayWriteState                 37                       # Number of times bus staying in WRITE state
system.mem_ctrls.readReqs                         519                       # Number of read requests accepted
system.mem_ctrls.writeReqs                         70                       # Number of write requests accepted
system.mem_ctrls.readBursts                       519                       # Number of controller read bursts, including those serviced by the write queue
system.mem_ctrls.writeBursts                       70                       # Number of controller write bursts, including those merged in the write queue
system.mem_ctrls.servicedByWrQ                     14                       # Number of controller read bursts serviced by the write queue
system.mem_ctrls.mergedWrBursts                     5                       # Number of controller write bursts merged with an existing one
system.mem_ctrls.neitherReadNorWriteReqs            0                       # Number of requests that are neither read nor write
system.mem_ctrls.avgRdQLen                       1.01                       # Average read queue length when enqueuing
system.mem_ctrls.avgWrQLen                      14.69                       # Average write queue length when enqueuing
system.mem_ctrls.numRdRetry                         0                       # Number of times read queue was full causing retry
system.mem_ctrls.numWrRetry                         0                       # Number of times write queue was full causing retry
system.mem_ctrls.readPktSize::0                     0                       # Read request sizes (log2)
system.mem_ctrls.readPktSize::1                     0                       # Read request sizes (log2)
system.mem_ctrls.readPktSize::2                     0                       # Read request sizes (log2)
system.mem_ctrls.readPktSize::3                     0                       # Read request sizes (log2)
system.mem_ctrls.readPktSize::4                     0                       # Read request sizes (log2)
system.mem_ctrls.readPktSize::5                     0                       # Read request sizes (log2)
system.mem_ctrls.readPktSize::6                   519                       # Read request sizes (log2)
system.mem_ctrls.writePktSize::0                    0                       # Write request sizes (log2)
system.mem_ctrls.writePktSize::1                    0                       # Write request sizes (log2)
system.mem_ctrls.writePktSize::2                    0                       # Write request sizes (log2)
system.mem_ctrls.writePktSize::3                    0                       # Write request sizes (log2)
system.mem_ctrls.writePktSize::4                    0                       # Write request sizes (log2)
system.mem_ctrls.writePktSize::5                    0                       # Write request sizes (log2)
system.mem_ctrls.writePktSize::6                   70                       # Write request sizes (log2)
system.mem_ctrls.rdQLenPdf::0                     500                       # What read queue length does an incoming req see
system.mem_ctrls.rdQLenPdf::1                       5                       # What read queue length does an incoming req see
system.mem_ctrls.rdQLenPdf::2                       0                       # What read queue length does an incoming req see
system.mem_ctrls.rdQLenPdf::3                       0                       # What read queue length does an incoming req see
system.mem_ctrls.rdQLenPdf::4                       0                       # What read queue length does an incoming req see
system.mem_ctrls.rdQLenPdf::5                       0                       # What read queue length does an incoming req see
system.mem_ctrls.rdQLenPdf::6                       0                       # What read queue length does an incoming req see
system.mem_ctrls.rdQLenPdf::7                       0                       # What read queue length does an incoming req see
system.mem_ctrls.rdQLenPdf::8                       0                       # What read queue length does an incoming req see
system.mem_ctrls.rdQLenPdf::9                       0                       # What read queue length does an incoming req see
system.mem_ctrls.rdQLenPdf::10                      0                       # What read queue length does an incoming req see
system.mem_ctrls.rdQLenPdf::11                      0                       # What read queue length does an incoming req see
system.mem_ctrls.rdQLenPdf::12                      0                       # What read queue length does an incoming req see
system.mem_ctrls.rdQLenPdf::13                      0                       # What read queue length does an incoming req see
system.mem_ctrls.rdQLenPdf::14                      0                       # What read queue length does an incoming req see
system.mem_ctrls.rdQLenPdf::15                      0                       # What read queue length does an incoming req see
system.mem_ctrls.rdQLenPdf::16                      0                       # What read queue length does an incoming req see
system.mem_ctrls.rdQLenPdf::17                      0                       # What read queue length does an incoming req see
system.mem_ctrls.rdQLenPdf::18                      0                       # What read queue length does an incoming req see
system.mem_ctrls.rdQLenPdf::19                      0                       # What read queue length does an incoming req see
system.mem_ctrls.rdQLenPdf::20                      0                       # What read queue length does an incoming req see
system.mem_ctrls.rdQLenPdf::21                      0                       # What read queue length does an incoming req see
system.mem_ctrls.rdQLenPdf::22                      0                       # What read queue length does an incoming req see
system.mem_ctrls.rdQLenPdf::23                      0                       # What read queue length does an incoming req see
system.mem_ctrls.rdQLenPdf::24                      0                       # What read queue length does an incoming req see
system.mem_ctrls.rdQLenPdf::25                      0                       # What read queue length does an incoming req see
system.mem_ctrls.rdQLenPdf::26                      0                       # What read queue length does an incoming req see
system.mem_ctrls.rdQLenPdf::27                      0                       # What read queue length does an incoming req see
system.mem_ctrls.rdQLenPdf::28                      0                       # What read queue length does an incoming req see
system.mem_ctrls.rdQLenPdf::29                      0                       # What read queue length does an incoming req see
system.mem_ctrls.rdQLenPdf::30                      0                       # What read queue length does an incoming req see
system.mem_ctrls.rdQLenPdf::31                      0                       # What read queue length does an incoming req see
system.mem_ctrls.wrQLenPdf::0                       1                       # What write queue length does an incoming req see
system.mem_ctrls.wrQLenPdf::1                       1                       # What write queue length does an incoming req see
system.mem_ctrls.wrQLenPdf::2                       1                       # What write queue length does an incoming req see
system.mem_ctrls.wrQLenPdf::3                       1                       # What write queue length does an incoming req see
system.mem_ctrls.wrQLenPdf::4                       1                       # What write queue length does an incoming req see
system.mem_ctrls.wrQLenPdf::5                       1                       # What write queue length does an incoming req see
system.mem_ctrls.wrQLenPdf::6                       1                       # What write queue length does an incoming req see
system.mem_ctrls.wrQLenPdf::7                       1                       # What write queue length does an incoming req see
system.mem_ctrls.wrQLenPdf::8                       1                       # What write queue length does an incoming req see
system.mem_ctrls.wrQLenPdf::9                       1                       # What write queue length does an incoming req see
system.mem_ctrls.wrQLenPdf::10                      1                       # What write queue length does an incoming req see
system.mem_ctrls.wrQLenPdf::11                      1                       # What write queue length does an incoming req see
system.mem_ctrls.wrQLenPdf::12                      1                       # What write queue length does an incoming req see
system.mem_ctrls.wrQLenPdf::13                      1                       # What write queue length does an incoming req see
system.mem_ctrls.wrQLenPdf::14                      1                       # What write queue length does an incoming req see
system.mem_ctrls.wrQLenPdf::15                      1                       # What write queue length does an incoming req see
system.mem_ctrls.wrQLenPdf::16                      1                       # What write queue length does an incoming req see
system.mem_ctrls.wrQLenPdf::17                      3                       # What write queue length does an incoming req see
system.mem_ctrls.wrQLenPdf::18                      3                       # What write queue length does an incoming req see
system.mem_ctrls.wrQLenPdf::19                      3                       # What write queue length does an incoming req see
system.mem_ctrls.wrQLenPdf::20                      3                       # What write queue length does an incoming req see
system.mem_ctrls.wrQLenPdf::21                      3                       # What write queue length does an incoming req see
system.mem_ctrls.wrQLenPdf::22                      3                       # What write queue length does an incoming req see
system.mem_ctrls.wrQLenPdf::23                      3                       # What write queue length does an incoming req see
system.mem_ctrls.wrQLenPdf::24                      3                       # What write queue length does an incoming req see
system.mem_ctrls.wrQLenPdf::25                      3                       # What write queue length does an incoming req see
system.mem_ctrls.wrQLenPdf::26                      3                       # What write queue length does an incoming req see
system.mem_ctrls.wrQLenPdf::27                      3                       # What write queue length does an incoming req see
system.mem_ctrls.wrQLenPdf::28                      3                       # What write queue length does an incoming req see
system.mem_ctrls.wrQLenPdf::29                      3                       # What write queue length does an incoming req see
system.mem_ctrls.wrQLenPdf::30                      3                       # What write queue length does an incoming req see
system.mem_ctrls.wrQLenPdf::31                      3                       # What write queue length does an incoming req see
system.mem_ctrls.wrQLenPdf::32                      3                       # What write queue length does an incoming req see
system.mem_ctrls.wrQLenPdf::33                      0                       # What write queue length does an incoming req see
system.mem_ctrls.wrQLenPdf::34                      0                       # What write queue length does an incoming req see
system.mem_ctrls.wrQLenPdf::35                      0                       # What write queue length does an incoming req see
system.mem_ctrls.wrQLenPdf::36                      0                       # What write queue length does an incoming req see
system.mem_ctrls.wrQLenPdf::37                      0                       # What write queue length does an incoming req see
system.mem_ctrls.wrQLenPdf::38                      0                       # What write queue length does an incoming req see
system.mem_ctrls.wrQLenPdf::39                      0                       # What write queue length does an incoming req see
system.mem_ctrls.wrQLenPdf::40                      0                       # What write queue length does an incoming req see
system.mem_ctrls.wrQLenPdf::41                      0                       # What write queue length does an incoming req see
system.mem_ctrls.wrQLenPdf::42                      0                       # What write queue length does an incoming req see
system.mem_ctrls.wrQLenPdf::43                      0                       # What write queue length does an incoming req see
system.mem_ctrls.wrQLenPdf::44                      0                       # What write queue length does an incoming req see
system.mem_ctrls.wrQLenPdf::45                      0                       # What write queue length does an incoming req see
system.mem_ctrls.wrQLenPdf::46                      0                       # What write queue length does an incoming req see
system.mem_ctrls.wrQLenPdf::47                      0                       # What write queue length does an incoming req see
system.mem_ctrls.wrQLenPdf::48                      0                       # What write queue length does an incoming req see
system.mem_ctrls.wrQLenPdf::49                      0                       # What write queue length does an incoming req see
system.mem_ctrls.wrQLenPdf::50                      0                       # What write queue length does an incoming req see
system.mem_ctrls.wrQLenPdf::51                      0                       # What write queue length does an incoming req see
system.mem_ctrls.wrQLenPdf::52                      0                       # What write queue length does an incoming req see
system.mem_ctrls.wrQLenPdf::53                      0                       # What write queue length does an incoming req see
system.mem_ctrls.wrQLenPdf::54                      0                       # What write queue length does an incoming req see
system.mem_ctrls.wrQLenPdf::55                      0                       # What write queue length does an incoming req see
system.mem_ctrls.wrQLenPdf::56                      0                       # What write queue length does an incoming req see
system.mem_ctrls.wrQLenPdf::57                      0                       # What write queue length does an incoming req see
system.mem_ctrls.wrQLenPdf::58                      0                       # What write queue length does an incoming req see
system.mem_ctrls.wrQLenPdf::59                      0                       # What write queue length does an incoming req see
system.mem_ctrls.wrQLenPdf::60                      0                       # What write queue length does an incoming req see
system.mem_ctrls.wrQLenPdf::61                      0                       # What write queue length does an incoming req see
system.mem_ctrls.wrQLenPdf::62                      0                       # What write queue length does an incoming req see
system.mem_ctrls.wrQLenPdf::63                      0                       # What write queue length does an incoming req see
system.mem_ctrls.rdPerTurnAround::samples            3                       # Reads before turning the bus around for writes
system.mem_ctrls.rdPerTurnAround::mean     168.333333                       # Reads before turning the bus around for writes
system.mem_ctrls.rdPerTurnAround::gmean     96.815962                       # Reads before turning the bus around for writes
system.mem_ctrls.rdPerTurnAround::stdev    210.157877                       # Reads before turning the bus around for writes
system.mem_ctrls.rdPerTurnAround::32-47             1     33.33%     33.33% # Reads before turning the bus around for writes
system.mem_ctrls.rdPerTurnAround::48-63             1     33.33%     66.67% # Reads before turning the bus around for writes
system.mem_ctrls.rdPerTurnAround::400-415            1     33.33%    100.00% # Reads before turning the bus around for writes
system.mem_ctrls.rdPerTurnAround::total             3                       # Reads before turning the bus around for writes
system.mem_ctrls.wrPerTurnAround::samples            2                       # Writes before turning the bus around for reads
system.mem_ctrls.wrPerTurnAround::mean             16                       # Writes before turning the bus around for reads
system.mem_ctrls.wrPerTurnAround::gmean     16.000000                       # Writes before turning the bus around for reads
system.mem_ctrls.wrPerTurnAround::16                2    100.00%    100.00% # Writes before turning the bus around for reads
system.mem_ctrls.wrPerTurnAround::total             2                       # Writes before turning the bus around for reads
system.mem_ctrls.bytesReadWrQ                     896                       # Total number of bytes read from write queue
system.mem_ctrls.bytesReadSys                   33216                       # Total read bytes from the system interface side
system.mem_ctrls.bytesWrittenSys                 4480                       # Total written bytes from the system interface side
system.mem_ctrls.avgRdBWSys                    655.10                       # Average system read bandwidth in MiByte/s
system.mem_ctrls.avgWrBWSys                     88.36                       # Average system write bandwidth in MiByte/s
system.mem_ctrls.totGap                      50696000                       # Total gap between requests
system.mem_ctrls.avgGap                      86071.31                       # Average gap between requests
system.mem_ctrls.requestorReadBytes::.cpu.inst        20800                       # Per-requestor bytes read from memory
system.mem_ctrls.requestorReadBytes::.cpu.data        11520                       # Per-requestor bytes read from memory
system.mem_ctrls.requestorWriteBytes::.writebacks         2560                       # Per-requestor bytes write to memory
system.mem_ctrls.requestorReadRate::.cpu.inst 410224045.440201938152                       # Per-requestor bytes read from memory rate (Bytes/sec)
system.mem_ctrls.requestorReadRate::.cpu.data 227201009.782265692949                       # Per-requestor bytes read from memory rate (Bytes/sec)
system.mem_ctrls.requestorWriteRate::.writebacks 50489113.284947931767                       # Per-requestor bytes write to memory rate (Bytes/sec)
system.mem_ctrls.requestorReadAccesses::.cpu.inst          338                       # Per-requestor read serviced memory accesses
system.mem_ctrls.requestorReadAccesses::.cpu.data          181                       # Per-requestor read serviced memory accesses
system.mem_ctrls.requestorWriteAccesses::.writebacks           70                       # Per-requestor write serviced memory accesses
system.mem_ctrls.requestorReadTotalLat::.cpu.inst      8190150                       # Per-requestor read total memory access latency
system.mem_ctrls.requestorReadTotalLat::.cpu.data      4329150                       # Per-requestor read total memory access latency
system.mem_ctrls.requestorWriteTotalLat::.writebacks    486251000                       # Per-requestor write total memory access latency
system.mem_ctrls.requestorReadAvgLat::.cpu.inst     24231.21                       # Per-requestor read average memory access latency
system.mem_ctrls.requestorReadAvgLat::.cpu.data     23917.96                       # Per-requestor read average memory access latency
system.mem_ctrls.requestorWriteAvgLat::.writebacks   6946442.86                       # Per-requestor write average memory access latency
system.mem_ctrls.dram.bytes_read::.cpu.inst        21632                       # Number of bytes read from this memory
system.mem_ctrls.dram.bytes_read::.cpu.data        11584                       # Number of bytes read from this memory
system.mem_ctrls.dram.bytes_read::total         33216                       # Number of bytes read from this memory
system.mem_ctrls.dram.bytes_inst_read::.cpu.inst        21632                       # Number of instructions bytes read from this memory
system.mem_ctrls.dram.bytes_inst_read::total        21632                       # Number of instructions bytes read from this memory
system.mem_ctrls.dram.num_reads::.cpu.inst          338                       # Number of read requests responded to by this memory
system.mem_ctrls.dram.num_reads::.cpu.data          181                       # Number of read requests responded to by this memory
system.mem_ctrls.dram.num_reads::total            519                       # Number of read requests responded to by this memory
system.mem_ctrls.dram.bw_read::.cpu.inst    426633007                       # Total read bandwidth from this memory (bytes/s)
system.mem_ctrls.dram.bw_read::.cpu.data    228463238                       # Total read bandwidth from this memory (bytes/s)
system.mem_ctrls.dram.bw_read::total        655096245                       # Total read bandwidth from this memory (bytes/s)
system.mem_ctrls.dram.bw_inst_read::.cpu.inst    426633007                       # Instruction read bandwidth from this memory (bytes/s)
system.mem_ctrls.dram.bw_inst_read::total    426633007                       # Instruction read bandwidth from this memory (bytes/s)
system.mem_ctrls.dram.bw_total::.cpu.inst    426633007                       # Total bandwidth to/from this memory (bytes/s)
system.mem_ctrls.dram.bw_total::.cpu.data    228463238                       # Total bandwidth to/from this memory (bytes/s)
system.mem_ctrls.dram.bw_total::total       655096245                       # Total bandwidth to/from this memory (bytes/s)
system.mem_ctrls.dram.readBursts                  505                       # Number of DRAM read bursts
system.mem_ctrls.dram.writeBursts                  40                       # Number of DRAM write bursts
system.mem_ctrls.dram.perBankRdBursts::0           51                       # Per bank write bursts
system.mem_ctrls.dram.perBankRdBursts::1            4                       # Per bank write bursts
system.mem_ctrls.dram.perBankRdBursts::2           31                       # Per bank write bursts
system.mem_ctrls.dram.perBankRdBursts::3           29                       # Per bank write bursts
system.mem_ctrls.dram.perBankRdBursts::4           16                       # Per bank write bursts
system.mem_ctrls.dram.perBankRdBursts::5           18                       # Per bank write bursts
system.mem_ctrls.dram.perBankRdBursts::6           51                       # Per bank write bursts
system.mem_ctrls.dram.perBankRdBursts::7           13                       # Per bank write bursts
system.mem_ctrls.dram.perBankRdBursts::8           77                       # Per bank write bursts
system.mem_ctrls.dram.perBankRdBursts::9           73                       # Per bank write bursts
system.mem_ctrls.dram.perBankRdBursts::10           40                       # Per bank write bursts
system.mem_ctrls.dram.perBankRdBursts::11           49                       # Per bank write bursts
system.mem_ctrls.dram.perBankRdBursts::12           29                       # Per bank write bursts
system.mem_ctrls.dram.perBankRdBursts::13           13                       # Per bank write bursts
system.mem_ctrls.dram.perBankRdBursts::14           10                       # Per bank write bursts
system.mem_ctrls.dram.perBankRdBursts::15            1                       # Per bank write bursts
system.mem_ctrls.dram.perBankWrBursts::0           12                       # Per bank write bursts
system.mem_ctrls.dram.perBankWrBursts::1            0                       # Per bank write bursts
system.mem_ctrls.dram.perBankWrBursts::2            4                       # Per bank write bursts
system.mem_ctrls.dram.perBankWrBursts::3            0                       # Per bank write bursts
system.mem_ctrls.dram.perBankWrBursts::4            2                       # Per bank write bursts
system.mem_ctrls.dram.perBankWrBursts::5            1                       # Per bank write bursts
system.mem_ctrls.dram.perBankWrBursts::6            2                       # Per bank write bursts
system.mem_ctrls.dram.perBankWrBursts::7            1                       # Per bank write bursts
system.mem_ctrls.dram.perBankWrBursts::8            7                       # Per bank write bursts
system.mem_ctrls.dram.perBankWrBursts::9            0                       # Per bank write bursts
system.mem_ctrls.dram.perBankWrBursts::10            1                       # Per bank write bursts
system.mem_ctrls.dram.perBankWrBursts::11            0                       # Per bank write bursts
system.mem_ctrls.dram.perBankWrBursts::12           10                       # Per bank write bursts
system.mem_ctrls.dram.perBankWrBursts::13            0                       # Per bank write bursts
system.mem_ctrls.dram.perBankWrBursts::14            0                       # Per bank write bursts
system.mem_ctrls.dram.perBankWrBursts::15            0                       # Per bank write bursts
system.mem_ctrls.dram.totQLat                 3050550                       # Total ticks spent queuing
system.mem_ctrls.dram.totBusLat               2525000                       # Total ticks spent in databus transfers
system.mem_ctrls.dram.totMemAccLat           12519300                       # Total ticks spent from burst creation until serviced by the DRAM
system.mem_ctrls.dram.avgQLat                 6040.69                       # Average queueing delay per DRAM burst
system.mem_ctrls.dram.avgBusLat               5000.00                       # Average bus latency per DRAM burst
system.mem_ctrls.dram.avgMemAccLat           24790.69                       # Average memory access latency per DRAM burst
system.mem_ctrls.dram.readRowHits                 390                       # Number of row buffer hits during reads
system.mem_ctrls.dram.writeRowHits                 32                       # Number of row buffer hits during writes
system.mem_ctrls.dram.readRowHitRate            77.23                       # Row buffer hit rate for reads
system.mem_ctrls.dram.writeRowHitRate           80.00                       # Row buffer hit rate for writes
system.mem_ctrls.dram.bytesPerActivate::samples          115                       # Bytes accessed per row activation
system.mem_ctrls.dram.bytesPerActivate::mean   285.495652                       # Bytes accessed per row activation
system.mem_ctrls.dram.bytesPerActivate::gmean   191.347275                       # Bytes accessed per row activation
system.mem_ctrls.dram.bytesPerActivate::stdev   275.116032                       # Bytes accessed per row activation
system.mem_ctrls.dram.bytesPerActivate::0-127           31     26.96%     26.96% # Bytes accessed per row activation
system.mem_ctrls.dram.bytesPerActivate::128-255           34     29.57%     56.52% # Bytes accessed per row activation
system.mem_ctrls.dram.bytesPerActivate::256-383           21     18.26%     74.78% # Bytes accessed per row activation
system.mem_ctrls.dram.bytesPerActivate::384-511            9      7.83%     82.61% # Bytes accessed per row activation
system.mem_ctrls.dram.bytesPerActivate::512-639            4      3.48%     86.09% # Bytes accessed per row activation
system.mem_ctrls.dram.bytesPerActivate::640-767            3      2.61%     88.70% # Bytes accessed per row activation
system.mem_ctrls.dram.bytesPerActivate::768-895            5      4.35%     93.04% # Bytes accessed per row activation
system.mem_ctrls.dram.bytesPerActivate::896-1023            1      0.87%     93.91% # Bytes accessed per row activation
system.mem_ctrls.dram.bytesPerActivate::1024-1151            7      6.09%    100.00% # Bytes accessed per row activation
system.mem_ctrls.dram.bytesPerActivate::total          115                       # Bytes accessed per row activation
system.mem_ctrls.dram.bytesRead                 32320                       # Total number of bytes read from DRAM
system.mem_ctrls.dram.bytesWritten               2560                       # Total number of bytes written to DRAM
system.mem_ctrls.dram.avgRdBW              637.425055                       # Average DRAM read bandwidth in MiBytes/s
system.mem_ctrls.dram.avgWrBW               50.489113                       # Average DRAM write bandwidth in MiBytes/s
system.mem_ctrls.dram.peakBW                 12800.00                       # Theoretical peak bandwidth in MiByte/s
system.mem_ctrls.dram.busUtil                    5.37                       # Data bus utilization in percentage
system.mem_ctrls.dram.busUtilRead                4.98                       # Data bus utilization in percentage for reads
system.mem_ctrls.dram.busUtilWrite               0.39                       # Data bus utilization in percentage for writes
system.mem_ctrls.dram.pageHitRate               77.43                       # Row buffer hit rate, read and write combined
system.mem_ctrls.dram.power_state.pwrStateResidencyTicks::UNDEFINED     50704000                       # Cumulative time (in ticks) in various power states
system.mem_ctrls.dram.rank0.actEnergy          342720                       # Energy for activate commands per rank (pJ)
system.mem_ctrls.dram.rank0.preEnergy          163185                       # Energy for precharge commands per rank (pJ)
system.mem_ctrls.dram.rank0.readEnergy        1520820                       # Energy for read commands per rank (pJ)
system.mem_ctrls.dram.rank0.writeEnergy         88740                       # Energy for write commands per rank (pJ)
system.mem_ctrls.dram.rank0.refreshEnergy 3687840.000000                       # Energy for refresh commands per rank (pJ)
system.mem_ctrls.dram.rank0.actBackEnergy     19397670                       # Energy for active background per rank (pJ)
system.mem_ctrls.dram.rank0.preBackEnergy      3135840                       # Energy for precharge background per rank (pJ)
system.mem_ctrls.dram.rank0.actPowerDownEnergy            0                       # Energy for active power-down per rank (pJ)
system.mem_ctrls.dram.rank0.prePowerDownEnergy            0                       # Energy for precharge power-down per rank (pJ)
system.mem_ctrls.dram.rank0.selfRefreshEnergy            0                       # Energy for self refresh per rank (pJ)
system.mem_ctrls.dram.rank0.totalEnergy      28336815                       # Total energy per rank (pJ)
system.mem_ctrls.dram.rank0.averagePower   558.867446                       # Core power per rank (mW)
system.mem_ctrls.dram.rank0.totalIdleTime            0                       # Total Idle time Per DRAM Rank
system.mem_ctrls.dram.rank0.pwrStateTime::IDLE      7942000                       # Time in different power states
system.mem_ctrls.dram.rank0.pwrStateTime::REF      1560000                       # Time in different power states
system.mem_ctrls.dram.rank0.pwrStateTime::SREF            0                       # Time in different power states
system.mem_ctrls.dram.rank0.pwrStateTime::PRE_PDN            0                       # Time in different power states
system.mem_ctrls.dram.rank0.pwrStateTime::ACT     41202000                       # Time in different power states
system.mem_ctrls.dram.rank0.pwrStateTime::ACT_PDN            0                       # Time in different power states
system.mem_ctrls.dram.rank1.actEnergy          535500                       # Energy for activate commands per rank (pJ)
system.mem_ctrls.dram.rank1.preEnergy          265650                       # Energy for precharge commands per rank (pJ)
system.mem_ctrls.dram.rank1.readEnergy        2084880                       # Energy for read commands per rank (pJ)
system.mem_ctrls.dram.rank1.writeEnergy         88740                       # Energy for write commands per rank (pJ)
system.mem_ctrls.dram.rank1.refreshEnergy 3687840.000000                       # Energy for refresh commands per rank (pJ)
system.mem_ctrls.dram.rank1.actBackEnergy     18124290                       # Energy for active background per rank (pJ)
system.mem_ctrls.dram.rank1.preBackEnergy      4208160                       # Energy for precharge background per rank (pJ)
system.mem_ctrls.dram.rank1.actPowerDownEnergy            0                       # Energy for active power-down per rank (pJ)
system.mem_ctrls.dram.rank1.prePowerDownEnergy            0                       # Energy for precharge power-down per rank (pJ)
system.mem_ctrls.dram.rank1.selfRefreshEnergy            0                       # Energy for self refresh per rank (pJ)
system.mem_ctrls.dram.rank1.totalEnergy      28995060                       # Total energy per rank (pJ)
system.mem_ctrls.dram.rank1.averagePower   571.849558                       # Core power per rank (mW)
system.mem_ctrls.dram.rank1.totalIdleTime            0                       # Total Idle time Per DRAM Rank
system.mem_ctrls.dram.rank1.pwrStateTime::IDLE     10775900                       # Time in different power states
system.mem_ctrls.dram.rank1.pwrStateTime::REF      1560000                       # Time in different power states
system.mem_ctrls.dram.rank1.pwrStateTime::SREF            0                       # Time in different power states
system.mem_ctrls.dram.rank1.pwrStateTime::PRE_PDN            0                       # Time in different power states
system.mem_ctrls.dram.rank1.pwrStateTime::ACT     38368100                       # Time in different power states
system.mem_ctrls.dram.rank1.pwrStateTime::ACT_PDN            0                       # Time in different power states
system.mem_ctrls.power_state.pwrStateResidencyTicks::UNDEFINED     50704000                       # Cumulative time (in ticks) in various power states
system.membus.trans_dist::ReadResp                443                       # Transaction distribution
system.membus.trans_dist::WritebackClean           72                       # Transaction distribution
system.membus.trans_dist::CleanEvict                3                       # Transaction distribution
system.membus.trans_dist::ReadExReq                76                       # Transaction distribution
system.membus.trans_dist::ReadExResp               76                       # Transaction distribution
system.membus.trans_dist::ReadCleanReq            338                       # Transaction distribution
system.membus.trans_dist::ReadSharedReq           105                       # Transaction distribution
system.membus.pkt_count_system.cpu.icache.mem_side_port::system.mem_ctrls.port          748                       # Packet count per connected requestor and responder (bytes)
system.membus.pkt_count_system.cpu.dcache.mem_side_port::system.mem_ctrls.port          365                       # Packet count per connected requestor and responder (bytes)
system.membus.pkt_count::total                   1113                       # Packet count per connected requestor and responder (bytes)
system.membus.pkt_size_system.cpu.icache.mem_side_port::system.mem_ctrls.port        26240                       # Cumulative packet size per connected requestor and responder (bytes)
system.membus.pkt_size_system.cpu.dcache.mem_side_port::system.mem_ctrls.port        11584                       # Cumulative packet size per connected requestor and responder (bytes)
system.membus.pkt_size::total                   37824                       # Cumulative packet size per connected requestor and responder (bytes)
system.membus.snoops                                0                       # Total snoops (count)
system.membus.snoopTraffic                          0                       # Total snoop traffic (bytes)
system.membus.snoop_fanout::samples               519                       # Request fanout histogram
system.membus.snoop_fanout::mean             0.028902                       # Request fanout histogram
system.membus.snoop_fanout::stdev            0.167692                       # Request fanout histogram
system.membus.snoop_fanout::underflows              0      0.00%      0.00% # Request fanout histogram
system.membus.snoop_fanout::0                     504     97.11%     97.11% # Request fanout histogram
system.membus.snoop_fanout::1                      15      2.89%    100.00% # Request fanout histogram
system.membus.snoop_fanout::2                       0      0.00%    100.00% # Request fanout histogram
system.membus.snoop_fanout::overflows               0      0.00%    100.00% # Request fanout histogram
system.membus.snoop_fanout::min_value               0                       # Request fanout histogram
system.membus.snoop_fanout::max_value               1                       # Request fanout histogram
system.membus.snoop_fanout::total                 519                       # Request fanout histogram
system.membus.power_state.pwrStateResidencyTicks::UNDEFINED     50704000                       # Cumulative time (in ticks) in various power states
system.membus.reqLayer0.occupancy             1139600                       # Layer occupancy (ticks)
system.membus.reqLayer0.utilization               2.2                       # Layer utilization (%)
system.membus.respLayer1.occupancy            1797850                       # Layer occupancy (ticks)
system.membus.respLayer1.utilization              3.5                       # Layer utilization (%)
system.membus.respLayer2.occupancy             968000                       # Layer occupancy (ticks)
system.membus.respLayer2.utilization              1.9                       # Layer utilization (%)
system.voltage_domain.voltage                       1                       # Voltage in Volts

---------- End Simulation Statistics   ----------
