
---------- Begin Simulation Statistics ----------
final_tick                               107200752000                       # Number of ticks from beginning of simulation (restored from checkpoints and never reset)
host_inst_rate                                 314294                       # Simulator instruction rate (inst/s)
host_mem_usage                                 709060                       # Number of bytes of host memory used
host_op_rate                                   343018                       # Simulator op (including micro ops) rate (op/s)
host_seconds                                   318.17                       # Real time elapsed on the host
host_tick_rate                              336925252                       # Simulator tick rate (ticks/s)
sim_freq                                 1000000000000                       # Frequency of simulated ticks
sim_insts                                   100000001                       # Number of instructions simulated
sim_ops                                     109139393                       # Number of ops (including micro ops) simulated
sim_seconds                                  0.107201                       # Number of seconds simulated
sim_ticks                                107200752000                       # Number of ticks simulated
system.cpu.committedInsts                   100000001                       # Number of instructions committed
system.cpu.committedOps                     109139393                       # Number of ops (including micro ops) committed
system.cpu.cpi                               1.072008                       # CPI: cycles per instruction
system.cpu.discardedOps                        429822                       # Number of ops (including micro ops) which were discarded before commit
system.cpu.idleCycles                         1935847                       # Total number of cycles that the object has spent stopped
system.cpu.ipc                               0.932829                       # IPC: instructions per cycle
system.cpu.numCycles                        107200752                       # number of cpu cycles simulated
system.cpu.numFetchSuspends                         0                       # Number of times Execute suspended instruction fetching
system.cpu.numWorkItemsCompleted                    0                       # number of work items this cpu completed
system.cpu.numWorkItemsStarted                      0                       # number of work items this cpu started
system.cpu.op_class_0::No_OpClass                   0      0.00%      0.00% # Class of committed instruction
system.cpu.op_class_0::IntAlu                72222733     66.17%     66.17% # Class of committed instruction
system.cpu.op_class_0::IntMult                 547028      0.50%     66.68% # Class of committed instruction
system.cpu.op_class_0::IntDiv                       0      0.00%     66.68% # Class of committed instruction
system.cpu.op_class_0::FloatAdd                     0      0.00%     66.68% # Class of committed instruction
system.cpu.op_class_0::FloatCmp                     0      0.00%     66.68% # Class of committed instruction
system.cpu.op_class_0::FloatCvt                     0      0.00%     66.68% # Class of committed instruction
system.cpu.op_class_0::FloatMult                    0      0.00%     66.68% # Class of committed instruction
system.cpu.op_class_0::FloatMultAcc                 0      0.00%     66.68% # Class of committed instruction
system.cpu.op_class_0::FloatDiv                     0      0.00%     66.68% # Class of committed instruction
system.cpu.op_class_0::FloatMisc                    0      0.00%     66.68% # Class of committed instruction
system.cpu.op_class_0::FloatSqrt                    0      0.00%     66.68% # Class of committed instruction
system.cpu.op_class_0::SimdAdd                 231656      0.21%     66.89% # Class of committed instruction
system.cpu.op_class_0::SimdAddAcc                   0      0.00%     66.89% # Class of committed instruction
system.cpu.op_class_0::SimdAlu                 148482      0.14%     67.02% # Class of committed instruction
system.cpu.op_class_0::SimdCmp                 115828      0.11%     67.13% # Class of committed instruction
system.cpu.op_class_0::SimdCvt                      0      0.00%     67.13% # Class of committed instruction
system.cpu.op_class_0::SimdMisc                 42808      0.04%     67.17% # Class of committed instruction
system.cpu.op_class_0::SimdMult                     0      0.00%     67.17% # Class of committed instruction
system.cpu.op_class_0::SimdMultAcc                  0      0.00%     67.17% # Class of committed instruction
system.cpu.op_class_0::SimdShift                    0      0.00%     67.17% # Class of committed instruction
system.cpu.op_class_0::SimdShiftAcc                 0      0.00%     67.17% # Class of committed instruction
system.cpu.op_class_0::SimdDiv                      0      0.00%     67.17% # Class of committed instruction
system.cpu.op_class_0::SimdSqrt                     0      0.00%     67.17% # Class of committed instruction
system.cpu.op_class_0::SimdFloatAdd                 0      0.00%     67.17% # Class of committed instruction
system.cpu.op_class_0::SimdFloatAlu                 0      0.00%     67.17% # Class of committed instruction
system.cpu.op_class_0::SimdFloatCmp                 0      0.00%     67.17% # Class of committed instruction
system.cpu.op_class_0::SimdFloatCvt                 0      0.00%     67.17% # Class of committed instruction
system.cpu.op_class_0::SimdFloatDiv                 0      0.00%     67.17% # Class of committed instruction
system.cpu.op_class_0::SimdFloatMisc           159857      0.15%     67.32% # Class of committed instruction
system.cpu.op_class_0::SimdFloatMult                0      0.00%     67.32% # Class of committed instruction
system.cpu.op_class_0::SimdFloatMultAcc             0      0.00%     67.32% # Class of committed instruction
system.cpu.op_class_0::SimdFloatSqrt                0      0.00%     67.32% # Class of committed instruction
system.cpu.op_class_0::SimdReduceAdd                0      0.00%     67.32% # Class of committed instruction
system.cpu.op_class_0::SimdReduceAlu                0      0.00%     67.32% # Class of committed instruction
system.cpu.op_class_0::SimdReduceCmp                0      0.00%     67.32% # Class of committed instruction
system.cpu.op_class_0::SimdFloatReduceAdd            0      0.00%     67.32% # Class of committed instruction
system.cpu.op_class_0::SimdFloatReduceCmp            0      0.00%     67.32% # Class of committed instruction
system.cpu.op_class_0::SimdAes                      0      0.00%     67.32% # Class of committed instruction
system.cpu.op_class_0::SimdAesMix                   0      0.00%     67.32% # Class of committed instruction
system.cpu.op_class_0::SimdSha1Hash                 0      0.00%     67.32% # Class of committed instruction
system.cpu.op_class_0::SimdSha1Hash2                0      0.00%     67.32% # Class of committed instruction
system.cpu.op_class_0::SimdSha256Hash               0      0.00%     67.32% # Class of committed instruction
system.cpu.op_class_0::SimdSha256Hash2              0      0.00%     67.32% # Class of committed instruction
system.cpu.op_class_0::SimdShaSigma2                0      0.00%     67.32% # Class of committed instruction
system.cpu.op_class_0::SimdShaSigma3                0      0.00%     67.32% # Class of committed instruction
system.cpu.op_class_0::SimdPredAlu                  0      0.00%     67.32% # Class of committed instruction
system.cpu.op_class_0::MemRead               20932683     19.18%     86.50% # Class of committed instruction
system.cpu.op_class_0::MemWrite              14738318     13.50%    100.00% # Class of committed instruction
system.cpu.op_class_0::FloatMemRead                 0      0.00%    100.00% # Class of committed instruction
system.cpu.op_class_0::FloatMemWrite                0      0.00%    100.00% # Class of committed instruction
system.cpu.op_class_0::IprAccess                    0      0.00%    100.00% # Class of committed instruction
system.cpu.op_class_0::InstPrefetch                 0      0.00%    100.00% # Class of committed instruction
system.cpu.op_class_0::total                109139393                       # Class of committed instruction
system.cpu.tickCycles                       105264905                       # Number of cycles that the object actually ticked
system.cpu.workload.numSyscalls                    85                       # Number of system calls
system.membus.snoop_filter.hit_multi_requests            0                       # Number of requests hitting in the snoop filter with multiple (>1) holders of the requested data.
system.membus.snoop_filter.hit_multi_snoops            0                       # Number of snoops hitting in the snoop filter with multiple (>1) holders of the requested data.
system.membus.snoop_filter.hit_single_requests        12749                       # Number of requests hitting in the snoop filter with a single holder of the requested data.
system.membus.snoop_filter.hit_single_snoops            0                       # Number of snoops hitting in the snoop filter with a single holder of the requested data.
system.membus.snoop_filter.tot_requests         27812                       # Total number of requests made to the snoop filter.
system.membus.snoop_filter.tot_snoops               0                       # Total number of snoops made to the snoop filter.
system.tol2bus.snoop_filter.hit_multi_requests           22                       # Number of requests hitting in the snoop filter with multiple (>1) holders of the requested data.
system.tol2bus.snoop_filter.hit_multi_snoops            5                       # Number of snoops hitting in the snoop filter with multiple (>1) holders of the requested data.
system.tol2bus.snoop_filter.hit_single_requests        19743                       # Number of requests hitting in the snoop filter with a single holder of the requested data.
system.tol2bus.snoop_filter.hit_single_snoops          676                       # Number of snoops hitting in the snoop filter with a single holder of the requested data.
system.tol2bus.snoop_filter.tot_requests        40220                       # Total number of requests made to the snoop filter.
system.tol2bus.snoop_filter.tot_snoops            681                       # Total number of snoops made to the snoop filter.
system.clk_domain.clock                          1000                       # Clock period in ticks
system.cpu.branchPred.lookups                19700443                       # Number of BP lookups
system.cpu.branchPred.condPredicted          15859857                       # Number of conditional branches predicted
system.cpu.branchPred.condIncorrect             88975                       # Number of conditional branches incorrect
system.cpu.branchPred.BTBLookups              8076250                       # Number of BTB lookups
system.cpu.branchPred.BTBHits                 8062902                       # Number of BTB hits
system.cpu.branchPred.BTBHitPct             99.834725                       # BTB Hit Percentage
system.cpu.branchPred.RASUsed                 1050693                       # Number of times the RAS was used to get a target.
system.cpu.branchPred.RASIncorrect                468                       # Number of incorrect RAS predictions.
system.cpu.branchPred.indirectLookups          422689                       # Number of indirect predictor lookups.
system.cpu.branchPred.indirectHits             287881                       # Number of indirect target hits.
system.cpu.branchPred.indirectMisses           134808                       # Number of indirect misses.
system.cpu.branchPred.indirectMispredicted         1103                       # Number of mispredicted indirect branches.
system.cpu.dcache.demand_hits::.cpu.data     34601042                       # number of demand (read+write) hits
system.cpu.dcache.demand_hits::total         34601042                       # number of demand (read+write) hits
system.cpu.dcache.overall_hits::.cpu.data     34604143                       # number of overall hits
system.cpu.dcache.overall_hits::total        34604143                       # number of overall hits
system.cpu.dcache.demand_misses::.cpu.data        24943                       # number of demand (read+write) misses
system.cpu.dcache.demand_misses::total          24943                       # number of demand (read+write) misses
system.cpu.dcache.overall_misses::.cpu.data        24971                       # number of overall misses
system.cpu.dcache.overall_misses::total         24971                       # number of overall misses
system.cpu.dcache.demand_miss_latency::.cpu.data   2485500000                       # number of demand (read+write) miss cycles
system.cpu.dcache.demand_miss_latency::total   2485500000                       # number of demand (read+write) miss cycles
system.cpu.dcache.overall_miss_latency::.cpu.data   2485500000                       # number of overall miss cycles
system.cpu.dcache.overall_miss_latency::total   2485500000                       # number of overall miss cycles
system.cpu.dcache.demand_accesses::.cpu.data     34625985                       # number of demand (read+write) accesses
system.cpu.dcache.demand_accesses::total     34625985                       # number of demand (read+write) accesses
system.cpu.dcache.overall_accesses::.cpu.data     34629114                       # number of overall (read+write) accesses
system.cpu.dcache.overall_accesses::total     34629114                       # number of overall (read+write) accesses
system.cpu.dcache.demand_miss_rate::.cpu.data     0.000720                       # miss rate for demand accesses
system.cpu.dcache.demand_miss_rate::total     0.000720                       # miss rate for demand accesses
system.cpu.dcache.overall_miss_rate::.cpu.data     0.000721                       # miss rate for overall accesses
system.cpu.dcache.overall_miss_rate::total     0.000721                       # miss rate for overall accesses
system.cpu.dcache.demand_avg_miss_latency::.cpu.data 99647.195606                       # average overall miss latency
system.cpu.dcache.demand_avg_miss_latency::total 99647.195606                       # average overall miss latency
system.cpu.dcache.overall_avg_miss_latency::.cpu.data 99535.461135                       # average overall miss latency
system.cpu.dcache.overall_avg_miss_latency::total 99535.461135                       # average overall miss latency
system.cpu.dcache.blocked_cycles::no_mshrs            0                       # number of cycles access was blocked
system.cpu.dcache.blocked_cycles::no_targets            0                       # number of cycles access was blocked
system.cpu.dcache.blocked::no_mshrs                 0                       # number of cycles access was blocked
system.cpu.dcache.blocked::no_targets               0                       # number of cycles access was blocked
system.cpu.dcache.avg_blocked_cycles::no_mshrs          nan                       # average number of cycles each access was blocked
system.cpu.dcache.avg_blocked_cycles::no_targets          nan                       # average number of cycles each access was blocked
system.cpu.dcache.writebacks::.writebacks        19069                       # number of writebacks
system.cpu.dcache.writebacks::total             19069                       # number of writebacks
system.cpu.dcache.demand_mshr_hits::.cpu.data         4707                       # number of demand (read+write) MSHR hits
system.cpu.dcache.demand_mshr_hits::total         4707                       # number of demand (read+write) MSHR hits
system.cpu.dcache.overall_mshr_hits::.cpu.data         4707                       # number of overall MSHR hits
system.cpu.dcache.overall_mshr_hits::total         4707                       # number of overall MSHR hits
system.cpu.dcache.demand_mshr_misses::.cpu.data        20236                       # number of demand (read+write) MSHR misses
system.cpu.dcache.demand_mshr_misses::total        20236                       # number of demand (read+write) MSHR misses
system.cpu.dcache.overall_mshr_misses::.cpu.data        20250                       # number of overall MSHR misses
system.cpu.dcache.overall_mshr_misses::total        20250                       # number of overall MSHR misses
system.cpu.dcache.demand_mshr_miss_latency::.cpu.data   1998947000                       # number of demand (read+write) MSHR miss cycles
system.cpu.dcache.demand_mshr_miss_latency::total   1998947000                       # number of demand (read+write) MSHR miss cycles
system.cpu.dcache.overall_mshr_miss_latency::.cpu.data   2000354000                       # number of overall MSHR miss cycles
system.cpu.dcache.overall_mshr_miss_latency::total   2000354000                       # number of overall MSHR miss cycles
system.cpu.dcache.demand_mshr_miss_rate::.cpu.data     0.000584                       # mshr miss rate for demand accesses
system.cpu.dcache.demand_mshr_miss_rate::total     0.000584                       # mshr miss rate for demand accesses
system.cpu.dcache.overall_mshr_miss_rate::.cpu.data     0.000585                       # mshr miss rate for overall accesses
system.cpu.dcache.overall_mshr_miss_rate::total     0.000585                       # mshr miss rate for overall accesses
system.cpu.dcache.demand_avg_mshr_miss_latency::.cpu.data 98781.725637                       # average overall mshr miss latency
system.cpu.dcache.demand_avg_mshr_miss_latency::total 98781.725637                       # average overall mshr miss latency
system.cpu.dcache.overall_avg_mshr_miss_latency::.cpu.data 98782.913580                       # average overall mshr miss latency
system.cpu.dcache.overall_avg_mshr_miss_latency::total 98782.913580                       # average overall mshr miss latency
system.cpu.dcache.replacements                  19738                       # number of replacements
system.cpu.dcache.ReadReq_hits::.cpu.data     20433342                       # number of ReadReq hits
system.cpu.dcache.ReadReq_hits::total        20433342                       # number of ReadReq hits
system.cpu.dcache.ReadReq_misses::.cpu.data        11315                       # number of ReadReq misses
system.cpu.dcache.ReadReq_misses::total         11315                       # number of ReadReq misses
system.cpu.dcache.ReadReq_miss_latency::.cpu.data    862081000                       # number of ReadReq miss cycles
system.cpu.dcache.ReadReq_miss_latency::total    862081000                       # number of ReadReq miss cycles
system.cpu.dcache.ReadReq_accesses::.cpu.data     20444657                       # number of ReadReq accesses(hits+misses)
system.cpu.dcache.ReadReq_accesses::total     20444657                       # number of ReadReq accesses(hits+misses)
system.cpu.dcache.ReadReq_miss_rate::.cpu.data     0.000553                       # miss rate for ReadReq accesses
system.cpu.dcache.ReadReq_miss_rate::total     0.000553                       # miss rate for ReadReq accesses
system.cpu.dcache.ReadReq_avg_miss_latency::.cpu.data 76189.217852                       # average ReadReq miss latency
system.cpu.dcache.ReadReq_avg_miss_latency::total 76189.217852                       # average ReadReq miss latency
system.cpu.dcache.ReadReq_mshr_hits::.cpu.data          575                       # number of ReadReq MSHR hits
system.cpu.dcache.ReadReq_mshr_hits::total          575                       # number of ReadReq MSHR hits
system.cpu.dcache.ReadReq_mshr_misses::.cpu.data        10740                       # number of ReadReq MSHR misses
system.cpu.dcache.ReadReq_mshr_misses::total        10740                       # number of ReadReq MSHR misses
system.cpu.dcache.ReadReq_mshr_miss_latency::.cpu.data    808783000                       # number of ReadReq MSHR miss cycles
system.cpu.dcache.ReadReq_mshr_miss_latency::total    808783000                       # number of ReadReq MSHR miss cycles
system.cpu.dcache.ReadReq_mshr_miss_rate::.cpu.data     0.000525                       # mshr miss rate for ReadReq accesses
system.cpu.dcache.ReadReq_mshr_miss_rate::total     0.000525                       # mshr miss rate for ReadReq accesses
system.cpu.dcache.ReadReq_avg_mshr_miss_latency::.cpu.data 75305.679702                       # average ReadReq mshr miss latency
system.cpu.dcache.ReadReq_avg_mshr_miss_latency::total 75305.679702                       # average ReadReq mshr miss latency
system.cpu.dcache.WriteReq_hits::.cpu.data     14167700                       # number of WriteReq hits
system.cpu.dcache.WriteReq_hits::total       14167700                       # number of WriteReq hits
system.cpu.dcache.WriteReq_misses::.cpu.data        13628                       # number of WriteReq misses
system.cpu.dcache.WriteReq_misses::total        13628                       # number of WriteReq misses
system.cpu.dcache.WriteReq_miss_latency::.cpu.data   1623419000                       # number of WriteReq miss cycles
system.cpu.dcache.WriteReq_miss_latency::total   1623419000                       # number of WriteReq miss cycles
system.cpu.dcache.WriteReq_accesses::.cpu.data     14181328                       # number of WriteReq accesses(hits+misses)
system.cpu.dcache.WriteReq_accesses::total     14181328                       # number of WriteReq accesses(hits+misses)
system.cpu.dcache.WriteReq_miss_rate::.cpu.data     0.000961                       # miss rate for WriteReq accesses
system.cpu.dcache.WriteReq_miss_rate::total     0.000961                       # miss rate for WriteReq accesses
system.cpu.dcache.WriteReq_avg_miss_latency::.cpu.data 119123.789257                       # average WriteReq miss latency
system.cpu.dcache.WriteReq_avg_miss_latency::total 119123.789257                       # average WriteReq miss latency
system.cpu.dcache.WriteReq_mshr_hits::.cpu.data         4132                       # number of WriteReq MSHR hits
system.cpu.dcache.WriteReq_mshr_hits::total         4132                       # number of WriteReq MSHR hits
system.cpu.dcache.WriteReq_mshr_misses::.cpu.data         9496                       # number of WriteReq MSHR misses
system.cpu.dcache.WriteReq_mshr_misses::total         9496                       # number of WriteReq MSHR misses
system.cpu.dcache.WriteReq_mshr_miss_latency::.cpu.data   1190164000                       # number of WriteReq MSHR miss cycles
system.cpu.dcache.WriteReq_mshr_miss_latency::total   1190164000                       # number of WriteReq MSHR miss cycles
system.cpu.dcache.WriteReq_mshr_miss_rate::.cpu.data     0.000670                       # mshr miss rate for WriteReq accesses
system.cpu.dcache.WriteReq_mshr_miss_rate::total     0.000670                       # mshr miss rate for WriteReq accesses
system.cpu.dcache.WriteReq_avg_mshr_miss_latency::.cpu.data 125333.192923                       # average WriteReq mshr miss latency
system.cpu.dcache.WriteReq_avg_mshr_miss_latency::total 125333.192923                       # average WriteReq mshr miss latency
system.cpu.dcache.SoftPFReq_hits::.cpu.data         3101                       # number of SoftPFReq hits
system.cpu.dcache.SoftPFReq_hits::total          3101                       # number of SoftPFReq hits
system.cpu.dcache.SoftPFReq_misses::.cpu.data           28                       # number of SoftPFReq misses
system.cpu.dcache.SoftPFReq_misses::total           28                       # number of SoftPFReq misses
system.cpu.dcache.SoftPFReq_accesses::.cpu.data         3129                       # number of SoftPFReq accesses(hits+misses)
system.cpu.dcache.SoftPFReq_accesses::total         3129                       # number of SoftPFReq accesses(hits+misses)
system.cpu.dcache.SoftPFReq_miss_rate::.cpu.data     0.008949                       # miss rate for SoftPFReq accesses
system.cpu.dcache.SoftPFReq_miss_rate::total     0.008949                       # miss rate for SoftPFReq accesses
system.cpu.dcache.SoftPFReq_mshr_misses::.cpu.data           14                       # number of SoftPFReq MSHR misses
system.cpu.dcache.SoftPFReq_mshr_misses::total           14                       # number of SoftPFReq MSHR misses
system.cpu.dcache.SoftPFReq_mshr_miss_latency::.cpu.data      1407000                       # number of SoftPFReq MSHR miss cycles
system.cpu.dcache.SoftPFReq_mshr_miss_latency::total      1407000                       # number of SoftPFReq MSHR miss cycles
system.cpu.dcache.SoftPFReq_mshr_miss_rate::.cpu.data     0.004474                       # mshr miss rate for SoftPFReq accesses
system.cpu.dcache.SoftPFReq_mshr_miss_rate::total     0.004474                       # mshr miss rate for SoftPFReq accesses
system.cpu.dcache.SoftPFReq_avg_mshr_miss_latency::.cpu.data       100500                       # average SoftPFReq mshr miss latency
system.cpu.dcache.SoftPFReq_avg_mshr_miss_latency::total       100500                       # average SoftPFReq mshr miss latency
system.cpu.dcache.LoadLockedReq_hits::.cpu.data        85610                       # number of LoadLockedReq hits
system.cpu.dcache.LoadLockedReq_hits::total        85610                       # number of LoadLockedReq hits
system.cpu.dcache.LoadLockedReq_accesses::.cpu.data        85610                       # number of LoadLockedReq accesses(hits+misses)
system.cpu.dcache.LoadLockedReq_accesses::total        85610                       # number of LoadLockedReq accesses(hits+misses)
system.cpu.dcache.StoreCondReq_hits::.cpu.data        85610                       # number of StoreCondReq hits
system.cpu.dcache.StoreCondReq_hits::total        85610                       # number of StoreCondReq hits
system.cpu.dcache.StoreCondReq_accesses::.cpu.data        85610                       # number of StoreCondReq accesses(hits+misses)
system.cpu.dcache.StoreCondReq_accesses::total        85610                       # number of StoreCondReq accesses(hits+misses)
system.cpu.dcache.power_state.pwrStateResidencyTicks::UNDEFINED 107200752000                       # Cumulative time (in ticks) in various power states
system.cpu.dcache.tags.tagsinuse           509.516099                       # Cycle average of tags in use
system.cpu.dcache.tags.total_refs            34795613                       # Total number of references to valid blocks.
system.cpu.dcache.tags.sampled_refs             20250                       # Sample count of references to valid blocks.
system.cpu.dcache.tags.avg_refs           1718.301877                       # Average number of references to valid blocks.
system.cpu.dcache.tags.warmup_cycle            258000                       # Cycle when the warmup percentage was hit.
system.cpu.dcache.tags.occ_blocks::.cpu.data   509.516099                       # Average occupied blocks per requestor
system.cpu.dcache.tags.occ_percent::.cpu.data     0.995149                       # Average percentage of cache occupancy
system.cpu.dcache.tags.occ_percent::total     0.995149                       # Average percentage of cache occupancy
system.cpu.dcache.tags.occ_task_id_blocks::1024          512                       # Occupied blocks per task id
system.cpu.dcache.tags.age_task_id_blocks_1024::0            1                       # Occupied blocks per task id
system.cpu.dcache.tags.age_task_id_blocks_1024::1            8                       # Occupied blocks per task id
system.cpu.dcache.tags.age_task_id_blocks_1024::2           99                       # Occupied blocks per task id
system.cpu.dcache.tags.age_task_id_blocks_1024::3          370                       # Occupied blocks per task id
system.cpu.dcache.tags.age_task_id_blocks_1024::4           34                       # Occupied blocks per task id
system.cpu.dcache.tags.occ_task_id_percent::1024            1                       # Percentage of cache occupancy per task id
system.cpu.dcache.tags.tag_accesses         139221586                       # Number of tag accesses
system.cpu.dcache.tags.data_accesses        139221586                       # Number of data accesses
system.cpu.dcache.tags.power_state.pwrStateResidencyTicks::UNDEFINED 107200752000                       # Cumulative time (in ticks) in various power states
system.cpu.dtb.instHits                             0                       # ITB inst hits
system.cpu.dtb.instMisses                           0                       # ITB inst misses
system.cpu.dtb.readHits                             0                       # DTB read hits
system.cpu.dtb.readMisses                           0                       # DTB read misses
system.cpu.dtb.writeHits                            0                       # DTB write hits
system.cpu.dtb.writeMisses                          0                       # DTB write misses
system.cpu.dtb.inserts                              0                       # Number of times an entry is inserted into the TLB
system.cpu.dtb.flushTlb                             0                       # Number of times complete TLB was flushed
system.cpu.dtb.flushTlbMva                          0                       # Number of times TLB was flushed by MVA
system.cpu.dtb.flushTlbMvaAsid                      0                       # Number of times TLB was flushed by MVA & ASID
system.cpu.dtb.flushTlbAsid                         0                       # Number of times TLB was flushed by ASID
system.cpu.dtb.flushedEntries                       0                       # Number of entries that have been flushed from TLB
system.cpu.dtb.alignFaults                          0                       # Number of TLB faults due to alignment restrictions
system.cpu.dtb.prefetchFaults                       0                       # Number of TLB faults due to prefetch
system.cpu.dtb.domainFaults                         0                       # Number of TLB faults due to domain restrictions
system.cpu.dtb.permsFaults                          0                       # Number of TLB faults due to permissions restrictions
system.cpu.dtb.readAccesses                         0                       # DTB read accesses
system.cpu.dtb.writeAccesses                        0                       # DTB write accesses
system.cpu.dtb.instAccesses                         0                       # ITB inst accesses
system.cpu.dtb.hits                                 0                       # Total TLB (inst and data) hits
system.cpu.dtb.misses                               0                       # Total TLB (inst and data) misses
system.cpu.dtb.accesses                             0                       # Total TLB (inst and data) accesses
system.cpu.dtb.stage2_mmu.stage2_tlb.instHits            0                       # ITB inst hits
system.cpu.dtb.stage2_mmu.stage2_tlb.instMisses            0                       # ITB inst misses
system.cpu.dtb.stage2_mmu.stage2_tlb.readHits            0                       # DTB read hits
system.cpu.dtb.stage2_mmu.stage2_tlb.readMisses            0                       # DTB read misses
system.cpu.dtb.stage2_mmu.stage2_tlb.writeHits            0                       # DTB write hits
system.cpu.dtb.stage2_mmu.stage2_tlb.writeMisses            0                       # DTB write misses
system.cpu.dtb.stage2_mmu.stage2_tlb.inserts            0                       # Number of times an entry is inserted into the TLB
system.cpu.dtb.stage2_mmu.stage2_tlb.flushTlb            0                       # Number of times complete TLB was flushed
system.cpu.dtb.stage2_mmu.stage2_tlb.flushTlbMva            0                       # Number of times TLB was flushed by MVA
system.cpu.dtb.stage2_mmu.stage2_tlb.flushTlbMvaAsid            0                       # Number of times TLB was flushed by MVA & ASID
system.cpu.dtb.stage2_mmu.stage2_tlb.flushTlbAsid            0                       # Number of times TLB was flushed by ASID
system.cpu.dtb.stage2_mmu.stage2_tlb.flushedEntries            0                       # Number of entries that have been flushed from TLB
system.cpu.dtb.stage2_mmu.stage2_tlb.alignFaults            0                       # Number of TLB faults due to alignment restrictions
system.cpu.dtb.stage2_mmu.stage2_tlb.prefetchFaults            0                       # Number of TLB faults due to prefetch
system.cpu.dtb.stage2_mmu.stage2_tlb.domainFaults            0                       # Number of TLB faults due to domain restrictions
system.cpu.dtb.stage2_mmu.stage2_tlb.permsFaults            0                       # Number of TLB faults due to permissions restrictions
system.cpu.dtb.stage2_mmu.stage2_tlb.readAccesses            0                       # DTB read accesses
system.cpu.dtb.stage2_mmu.stage2_tlb.writeAccesses            0                       # DTB write accesses
system.cpu.dtb.stage2_mmu.stage2_tlb.instAccesses            0                       # ITB inst accesses
system.cpu.dtb.stage2_mmu.stage2_tlb.hits            0                       # Total TLB (inst and data) hits
system.cpu.dtb.stage2_mmu.stage2_tlb.misses            0                       # Total TLB (inst and data) misses
system.cpu.dtb.stage2_mmu.stage2_tlb.accesses            0                       # Total TLB (inst and data) accesses
system.cpu.dtb.stage2_mmu.stage2_tlb.walker.walks            0                       # Table walker walks requested
system.cpu.dtb.stage2_mmu.stage2_tlb.walker.requestOrigin_Requested::Data            0                       # Table walker requests started/completed, data/inst
system.cpu.dtb.stage2_mmu.stage2_tlb.walker.requestOrigin_Requested::Inst            0                       # Table walker requests started/completed, data/inst
system.cpu.dtb.stage2_mmu.stage2_tlb.walker.requestOrigin_Requested::total            0                       # Table walker requests started/completed, data/inst
system.cpu.dtb.stage2_mmu.stage2_tlb.walker.requestOrigin_Completed::Data            0                       # Table walker requests started/completed, data/inst
system.cpu.dtb.stage2_mmu.stage2_tlb.walker.requestOrigin_Completed::Inst            0                       # Table walker requests started/completed, data/inst
system.cpu.dtb.stage2_mmu.stage2_tlb.walker.requestOrigin_Completed::total            0                       # Table walker requests started/completed, data/inst
system.cpu.dtb.stage2_mmu.stage2_tlb.walker.requestOrigin::total            0                       # Table walker requests started/completed, data/inst
system.cpu.dtb.stage2_mmu.stage2_tlb.walker.power_state.pwrStateResidencyTicks::UNDEFINED 107200752000                       # Cumulative time (in ticks) in various power states
system.cpu.dtb.walker.walks                         0                       # Table walker walks requested
system.cpu.dtb.walker.requestOrigin_Requested::Data            0                       # Table walker requests started/completed, data/inst
system.cpu.dtb.walker.requestOrigin_Requested::Inst            0                       # Table walker requests started/completed, data/inst
system.cpu.dtb.walker.requestOrigin_Requested::total            0                       # Table walker requests started/completed, data/inst
system.cpu.dtb.walker.requestOrigin_Completed::Data            0                       # Table walker requests started/completed, data/inst
system.cpu.dtb.walker.requestOrigin_Completed::Inst            0                       # Table walker requests started/completed, data/inst
system.cpu.dtb.walker.requestOrigin_Completed::total            0                       # Table walker requests started/completed, data/inst
system.cpu.dtb.walker.requestOrigin::total            0                       # Table walker requests started/completed, data/inst
system.cpu.dtb.walker.power_state.pwrStateResidencyTicks::UNDEFINED 107200752000                       # Cumulative time (in ticks) in various power states
system.cpu.fetch2.intInstructions            49176919                       # Number of integer instructions successfully decoded
system.cpu.fetch2.fpInstructions                    0                       # Number of floating point instructions successfully decoded
system.cpu.fetch2.vecInstructions                   0                       # Number of SIMD instructions successfully decoded
system.cpu.fetch2.loadInstructions           17527252                       # Number of memory load instructions successfully decoded
system.cpu.fetch2.storeInstructions          10086753                       # Number of memory store instructions successfully decoded
system.cpu.fetch2.amoInstructions                   0                       # Number of memory atomic instructions successfully decoded
system.cpu.icache.demand_hits::.cpu.inst     25074609                       # number of demand (read+write) hits
system.cpu.icache.demand_hits::total         25074609                       # number of demand (read+write) hits
system.cpu.icache.overall_hits::.cpu.inst     25074609                       # number of overall hits
system.cpu.icache.overall_hits::total        25074609                       # number of overall hits
system.cpu.icache.demand_misses::.cpu.inst          232                       # number of demand (read+write) misses
system.cpu.icache.demand_misses::total            232                       # number of demand (read+write) misses
system.cpu.icache.overall_misses::.cpu.inst          232                       # number of overall misses
system.cpu.icache.overall_misses::total           232                       # number of overall misses
system.cpu.icache.demand_miss_latency::.cpu.inst     27386000                       # number of demand (read+write) miss cycles
system.cpu.icache.demand_miss_latency::total     27386000                       # number of demand (read+write) miss cycles
system.cpu.icache.overall_miss_latency::.cpu.inst     27386000                       # number of overall miss cycles
system.cpu.icache.overall_miss_latency::total     27386000                       # number of overall miss cycles
system.cpu.icache.demand_accesses::.cpu.inst     25074841                       # number of demand (read+write) accesses
system.cpu.icache.demand_accesses::total     25074841                       # number of demand (read+write) accesses
system.cpu.icache.overall_accesses::.cpu.inst     25074841                       # number of overall (read+write) accesses
system.cpu.icache.overall_accesses::total     25074841                       # number of overall (read+write) accesses
system.cpu.icache.demand_miss_rate::.cpu.inst     0.000009                       # miss rate for demand accesses
system.cpu.icache.demand_miss_rate::total     0.000009                       # miss rate for demand accesses
system.cpu.icache.overall_miss_rate::.cpu.inst     0.000009                       # miss rate for overall accesses
system.cpu.icache.overall_miss_rate::total     0.000009                       # miss rate for overall accesses
system.cpu.icache.demand_avg_miss_latency::.cpu.inst 118043.103448                       # average overall miss latency
system.cpu.icache.demand_avg_miss_latency::total 118043.103448                       # average overall miss latency
system.cpu.icache.overall_avg_miss_latency::.cpu.inst 118043.103448                       # average overall miss latency
system.cpu.icache.overall_avg_miss_latency::total 118043.103448                       # average overall miss latency
system.cpu.icache.blocked_cycles::no_mshrs            0                       # number of cycles access was blocked
system.cpu.icache.blocked_cycles::no_targets            0                       # number of cycles access was blocked
system.cpu.icache.blocked::no_mshrs                 0                       # number of cycles access was blocked
system.cpu.icache.blocked::no_targets               0                       # number of cycles access was blocked
system.cpu.icache.avg_blocked_cycles::no_mshrs          nan                       # average number of cycles each access was blocked
system.cpu.icache.avg_blocked_cycles::no_targets          nan                       # average number of cycles each access was blocked
system.cpu.icache.demand_mshr_misses::.cpu.inst          232                       # number of demand (read+write) MSHR misses
system.cpu.icache.demand_mshr_misses::total          232                       # number of demand (read+write) MSHR misses
system.cpu.icache.overall_mshr_misses::.cpu.inst          232                       # number of overall MSHR misses
system.cpu.icache.overall_mshr_misses::total          232                       # number of overall MSHR misses
system.cpu.icache.demand_mshr_miss_latency::.cpu.inst     26922000                       # number of demand (read+write) MSHR miss cycles
system.cpu.icache.demand_mshr_miss_latency::total     26922000                       # number of demand (read+write) MSHR miss cycles
system.cpu.icache.overall_mshr_miss_latency::.cpu.inst     26922000                       # number of overall MSHR miss cycles
system.cpu.icache.overall_mshr_miss_latency::total     26922000                       # number of overall MSHR miss cycles
system.cpu.icache.demand_mshr_miss_rate::.cpu.inst     0.000009                       # mshr miss rate for demand accesses
system.cpu.icache.demand_mshr_miss_rate::total     0.000009                       # mshr miss rate for demand accesses
system.cpu.icache.overall_mshr_miss_rate::.cpu.inst     0.000009                       # mshr miss rate for overall accesses
system.cpu.icache.overall_mshr_miss_rate::total     0.000009                       # mshr miss rate for overall accesses
system.cpu.icache.demand_avg_mshr_miss_latency::.cpu.inst 116043.103448                       # average overall mshr miss latency
system.cpu.icache.demand_avg_mshr_miss_latency::total 116043.103448                       # average overall mshr miss latency
system.cpu.icache.overall_avg_mshr_miss_latency::.cpu.inst 116043.103448                       # average overall mshr miss latency
system.cpu.icache.overall_avg_mshr_miss_latency::total 116043.103448                       # average overall mshr miss latency
system.cpu.icache.replacements                      0                       # number of replacements
system.cpu.icache.ReadReq_hits::.cpu.inst     25074609                       # number of ReadReq hits
system.cpu.icache.ReadReq_hits::total        25074609                       # number of ReadReq hits
system.cpu.icache.ReadReq_misses::.cpu.inst          232                       # number of ReadReq misses
system.cpu.icache.ReadReq_misses::total           232                       # number of ReadReq misses
system.cpu.icache.ReadReq_miss_latency::.cpu.inst     27386000                       # number of ReadReq miss cycles
system.cpu.icache.ReadReq_miss_latency::total     27386000                       # number of ReadReq miss cycles
system.cpu.icache.ReadReq_accesses::.cpu.inst     25074841                       # number of ReadReq accesses(hits+misses)
system.cpu.icache.ReadReq_accesses::total     25074841                       # number of ReadReq accesses(hits+misses)
system.cpu.icache.ReadReq_miss_rate::.cpu.inst     0.000009                       # miss rate for ReadReq accesses
system.cpu.icache.ReadReq_miss_rate::total     0.000009                       # miss rate for ReadReq accesses
system.cpu.icache.ReadReq_avg_miss_latency::.cpu.inst 118043.103448                       # average ReadReq miss latency
system.cpu.icache.ReadReq_avg_miss_latency::total 118043.103448                       # average ReadReq miss latency
system.cpu.icache.ReadReq_mshr_misses::.cpu.inst          232                       # number of ReadReq MSHR misses
system.cpu.icache.ReadReq_mshr_misses::total          232                       # number of ReadReq MSHR misses
system.cpu.icache.ReadReq_mshr_miss_latency::.cpu.inst     26922000                       # number of ReadReq MSHR miss cycles
system.cpu.icache.ReadReq_mshr_miss_latency::total     26922000                       # number of ReadReq MSHR miss cycles
system.cpu.icache.ReadReq_mshr_miss_rate::.cpu.inst     0.000009                       # mshr miss rate for ReadReq accesses
system.cpu.icache.ReadReq_mshr_miss_rate::total     0.000009                       # mshr miss rate for ReadReq accesses
system.cpu.icache.ReadReq_avg_mshr_miss_latency::.cpu.inst 116043.103448                       # average ReadReq mshr miss latency
system.cpu.icache.ReadReq_avg_mshr_miss_latency::total 116043.103448                       # average ReadReq mshr miss latency
system.cpu.icache.power_state.pwrStateResidencyTicks::UNDEFINED 107200752000                       # Cumulative time (in ticks) in various power states
system.cpu.icache.tags.tagsinuse           231.697080                       # Cycle average of tags in use
system.cpu.icache.tags.total_refs            25074841                       # Total number of references to valid blocks.
system.cpu.icache.tags.sampled_refs               232                       # Sample count of references to valid blocks.
system.cpu.icache.tags.avg_refs          108081.211207                       # Average number of references to valid blocks.
system.cpu.icache.tags.warmup_cycle            123000                       # Cycle when the warmup percentage was hit.
system.cpu.icache.tags.occ_blocks::.cpu.inst   231.697080                       # Average occupied blocks per requestor
system.cpu.icache.tags.occ_percent::.cpu.inst     0.452533                       # Average percentage of cache occupancy
system.cpu.icache.tags.occ_percent::total     0.452533                       # Average percentage of cache occupancy
system.cpu.icache.tags.occ_task_id_blocks::1024          232                       # Occupied blocks per task id
system.cpu.icache.tags.age_task_id_blocks_1024::4          232                       # Occupied blocks per task id
system.cpu.icache.tags.occ_task_id_percent::1024     0.453125                       # Percentage of cache occupancy per task id
system.cpu.icache.tags.tag_accesses         100299596                       # Number of tag accesses
system.cpu.icache.tags.data_accesses        100299596                       # Number of data accesses
system.cpu.icache.tags.power_state.pwrStateResidencyTicks::UNDEFINED 107200752000                       # Cumulative time (in ticks) in various power states
system.cpu.itb.instHits                             0                       # ITB inst hits
system.cpu.itb.instMisses                           0                       # ITB inst misses
system.cpu.itb.readHits                             0                       # DTB read hits
system.cpu.itb.readMisses                           0                       # DTB read misses
system.cpu.itb.writeHits                            0                       # DTB write hits
system.cpu.itb.writeMisses                          0                       # DTB write misses
system.cpu.itb.inserts                              0                       # Number of times an entry is inserted into the TLB
system.cpu.itb.flushTlb                             0                       # Number of times complete TLB was flushed
system.cpu.itb.flushTlbMva                          0                       # Number of times TLB was flushed by MVA
system.cpu.itb.flushTlbMvaAsid                      0                       # Number of times TLB was flushed by MVA & ASID
system.cpu.itb.flushTlbAsid                         0                       # Number of times TLB was flushed by ASID
system.cpu.itb.flushedEntries                       0                       # Number of entries that have been flushed from TLB
system.cpu.itb.alignFaults                          0                       # Number of TLB faults due to alignment restrictions
system.cpu.itb.prefetchFaults                       0                       # Number of TLB faults due to prefetch
system.cpu.itb.domainFaults                         0                       # Number of TLB faults due to domain restrictions
system.cpu.itb.permsFaults                          0                       # Number of TLB faults due to permissions restrictions
system.cpu.itb.readAccesses                         0                       # DTB read accesses
system.cpu.itb.writeAccesses                        0                       # DTB write accesses
system.cpu.itb.instAccesses                         0                       # ITB inst accesses
system.cpu.itb.hits                                 0                       # Total TLB (inst and data) hits
system.cpu.itb.misses                               0                       # Total TLB (inst and data) misses
system.cpu.itb.accesses                             0                       # Total TLB (inst and data) accesses
system.cpu.itb.stage2_mmu.stage2_tlb.instHits            0                       # ITB inst hits
system.cpu.itb.stage2_mmu.stage2_tlb.instMisses            0                       # ITB inst misses
system.cpu.itb.stage2_mmu.stage2_tlb.readHits            0                       # DTB read hits
system.cpu.itb.stage2_mmu.stage2_tlb.readMisses            0                       # DTB read misses
system.cpu.itb.stage2_mmu.stage2_tlb.writeHits            0                       # DTB write hits
system.cpu.itb.stage2_mmu.stage2_tlb.writeMisses            0                       # DTB write misses
system.cpu.itb.stage2_mmu.stage2_tlb.inserts            0                       # Number of times an entry is inserted into the TLB
system.cpu.itb.stage2_mmu.stage2_tlb.flushTlb            0                       # Number of times complete TLB was flushed
system.cpu.itb.stage2_mmu.stage2_tlb.flushTlbMva            0                       # Number of times TLB was flushed by MVA
system.cpu.itb.stage2_mmu.stage2_tlb.flushTlbMvaAsid            0                       # Number of times TLB was flushed by MVA & ASID
system.cpu.itb.stage2_mmu.stage2_tlb.flushTlbAsid            0                       # Number of times TLB was flushed by ASID
system.cpu.itb.stage2_mmu.stage2_tlb.flushedEntries            0                       # Number of entries that have been flushed from TLB
system.cpu.itb.stage2_mmu.stage2_tlb.alignFaults            0                       # Number of TLB faults due to alignment restrictions
system.cpu.itb.stage2_mmu.stage2_tlb.prefetchFaults            0                       # Number of TLB faults due to prefetch
system.cpu.itb.stage2_mmu.stage2_tlb.domainFaults            0                       # Number of TLB faults due to domain restrictions
system.cpu.itb.stage2_mmu.stage2_tlb.permsFaults            0                       # Number of TLB faults due to permissions restrictions
system.cpu.itb.stage2_mmu.stage2_tlb.readAccesses            0                       # DTB read accesses
system.cpu.itb.stage2_mmu.stage2_tlb.writeAccesses            0                       # DTB write accesses
system.cpu.itb.stage2_mmu.stage2_tlb.instAccesses            0                       # ITB inst accesses
system.cpu.itb.stage2_mmu.stage2_tlb.hits            0                       # Total TLB (inst and data) hits
system.cpu.itb.stage2_mmu.stage2_tlb.misses            0                       # Total TLB (inst and data) misses
system.cpu.itb.stage2_mmu.stage2_tlb.accesses            0                       # Total TLB (inst and data) accesses
system.cpu.itb.stage2_mmu.stage2_tlb.walker.walks            0                       # Table walker walks requested
system.cpu.itb.stage2_mmu.stage2_tlb.walker.requestOrigin_Requested::Data            0                       # Table walker requests started/completed, data/inst
system.cpu.itb.stage2_mmu.stage2_tlb.walker.requestOrigin_Requested::Inst            0                       # Table walker requests started/completed, data/inst
system.cpu.itb.stage2_mmu.stage2_tlb.walker.requestOrigin_Requested::total            0                       # Table walker requests started/completed, data/inst
system.cpu.itb.stage2_mmu.stage2_tlb.walker.requestOrigin_Completed::Data            0                       # Table walker requests started/completed, data/inst
system.cpu.itb.stage2_mmu.stage2_tlb.walker.requestOrigin_Completed::Inst            0                       # Table walker requests started/completed, data/inst
system.cpu.itb.stage2_mmu.stage2_tlb.walker.requestOrigin_Completed::total            0                       # Table walker requests started/completed, data/inst
system.cpu.itb.stage2_mmu.stage2_tlb.walker.requestOrigin::total            0                       # Table walker requests started/completed, data/inst
system.cpu.itb.stage2_mmu.stage2_tlb.walker.power_state.pwrStateResidencyTicks::UNDEFINED 107200752000                       # Cumulative time (in ticks) in various power states
system.cpu.itb.walker.walks                         0                       # Table walker walks requested
system.cpu.itb.walker.requestOrigin_Requested::Data            0                       # Table walker requests started/completed, data/inst
system.cpu.itb.walker.requestOrigin_Requested::Inst            0                       # Table walker requests started/completed, data/inst
system.cpu.itb.walker.requestOrigin_Requested::total            0                       # Table walker requests started/completed, data/inst
system.cpu.itb.walker.requestOrigin_Completed::Data            0                       # Table walker requests started/completed, data/inst
system.cpu.itb.walker.requestOrigin_Completed::Inst            0                       # Table walker requests started/completed, data/inst
system.cpu.itb.walker.requestOrigin_Completed::total            0                       # Table walker requests started/completed, data/inst
system.cpu.itb.walker.requestOrigin::total            0                       # Table walker requests started/completed, data/inst
system.cpu.itb.walker.power_state.pwrStateResidencyTicks::UNDEFINED 107200752000                       # Cumulative time (in ticks) in various power states
system.cpu.power_state.pwrStateResidencyTicks::ON 107200752000                       # Cumulative time (in ticks) in various power states
system.cpu.thread_0.numInsts                100000001                       # Number of Instructions committed
system.cpu.thread_0.numOps                  109139393                       # Number of Ops committed
system.cpu.thread_0.numMemRefs                      0                       # Number of Memory References
system.cpu_clk_domain.clock                      1000                       # Clock period in ticks
system.cpu_voltage_domain.voltage                   1                       # Voltage in Volts
system.l2.demand_hits::.cpu.inst                    5                       # number of demand (read+write) hits
system.l2.demand_hits::.cpu.data                 5410                       # number of demand (read+write) hits
system.l2.demand_hits::total                     5415                       # number of demand (read+write) hits
system.l2.overall_hits::.cpu.inst                   5                       # number of overall hits
system.l2.overall_hits::.cpu.data                5410                       # number of overall hits
system.l2.overall_hits::total                    5415                       # number of overall hits
system.l2.demand_misses::.cpu.inst                227                       # number of demand (read+write) misses
system.l2.demand_misses::.cpu.data              14840                       # number of demand (read+write) misses
system.l2.demand_misses::total                  15067                       # number of demand (read+write) misses
system.l2.overall_misses::.cpu.inst               227                       # number of overall misses
system.l2.overall_misses::.cpu.data             14840                       # number of overall misses
system.l2.overall_misses::total                 15067                       # number of overall misses
system.l2.demand_miss_latency::.cpu.inst     26111000                       # number of demand (read+write) miss cycles
system.l2.demand_miss_latency::.cpu.data   1825954000                       # number of demand (read+write) miss cycles
system.l2.demand_miss_latency::total       1852065000                       # number of demand (read+write) miss cycles
system.l2.overall_miss_latency::.cpu.inst     26111000                       # number of overall miss cycles
system.l2.overall_miss_latency::.cpu.data   1825954000                       # number of overall miss cycles
system.l2.overall_miss_latency::total      1852065000                       # number of overall miss cycles
system.l2.demand_accesses::.cpu.inst              232                       # number of demand (read+write) accesses
system.l2.demand_accesses::.cpu.data            20250                       # number of demand (read+write) accesses
system.l2.demand_accesses::total                20482                       # number of demand (read+write) accesses
system.l2.overall_accesses::.cpu.inst             232                       # number of overall (read+write) accesses
system.l2.overall_accesses::.cpu.data           20250                       # number of overall (read+write) accesses
system.l2.overall_accesses::total               20482                       # number of overall (read+write) accesses
system.l2.demand_miss_rate::.cpu.inst        0.978448                       # miss rate for demand accesses
system.l2.demand_miss_rate::.cpu.data        0.732840                       # miss rate for demand accesses
system.l2.demand_miss_rate::total            0.735622                       # miss rate for demand accesses
system.l2.overall_miss_rate::.cpu.inst       0.978448                       # miss rate for overall accesses
system.l2.overall_miss_rate::.cpu.data       0.732840                       # miss rate for overall accesses
system.l2.overall_miss_rate::total           0.735622                       # miss rate for overall accesses
system.l2.demand_avg_miss_latency::.cpu.inst 115026.431718                       # average overall miss latency
system.l2.demand_avg_miss_latency::.cpu.data 123042.722372                       # average overall miss latency
system.l2.demand_avg_miss_latency::total 122921.948629                       # average overall miss latency
system.l2.overall_avg_miss_latency::.cpu.inst 115026.431718                       # average overall miss latency
system.l2.overall_avg_miss_latency::.cpu.data 123042.722372                       # average overall miss latency
system.l2.overall_avg_miss_latency::total 122921.948629                       # average overall miss latency
system.l2.blocked_cycles::no_mshrs                  0                       # number of cycles access was blocked
system.l2.blocked_cycles::no_targets                0                       # number of cycles access was blocked
system.l2.blocked::no_mshrs                         0                       # number of cycles access was blocked
system.l2.blocked::no_targets                       0                       # number of cycles access was blocked
system.l2.avg_blocked_cycles::no_mshrs            nan                       # average number of cycles each access was blocked
system.l2.avg_blocked_cycles::no_targets          nan                       # average number of cycles each access was blocked
system.l2.writebacks::.writebacks               12626                       # number of writebacks
system.l2.writebacks::total                     12626                       # number of writebacks
system.l2.demand_mshr_hits::.cpu.data               3                       # number of demand (read+write) MSHR hits
system.l2.demand_mshr_hits::total                   3                       # number of demand (read+write) MSHR hits
system.l2.overall_mshr_hits::.cpu.data              3                       # number of overall MSHR hits
system.l2.overall_mshr_hits::total                  3                       # number of overall MSHR hits
system.l2.demand_mshr_misses::.cpu.inst           227                       # number of demand (read+write) MSHR misses
system.l2.demand_mshr_misses::.cpu.data         14837                       # number of demand (read+write) MSHR misses
system.l2.demand_mshr_misses::total             15064                       # number of demand (read+write) MSHR misses
system.l2.overall_mshr_misses::.cpu.inst          227                       # number of overall MSHR misses
system.l2.overall_mshr_misses::.cpu.data        14837                       # number of overall MSHR misses
system.l2.overall_mshr_misses::total            15064                       # number of overall MSHR misses
system.l2.demand_mshr_miss_latency::.cpu.inst     21571000                       # number of demand (read+write) MSHR miss cycles
system.l2.demand_mshr_miss_latency::.cpu.data   1528893000                       # number of demand (read+write) MSHR miss cycles
system.l2.demand_mshr_miss_latency::total   1550464000                       # number of demand (read+write) MSHR miss cycles
system.l2.overall_mshr_miss_latency::.cpu.inst     21571000                       # number of overall MSHR miss cycles
system.l2.overall_mshr_miss_latency::.cpu.data   1528893000                       # number of overall MSHR miss cycles
system.l2.overall_mshr_miss_latency::total   1550464000                       # number of overall MSHR miss cycles
system.l2.demand_mshr_miss_rate::.cpu.inst     0.978448                       # mshr miss rate for demand accesses
system.l2.demand_mshr_miss_rate::.cpu.data     0.732691                       # mshr miss rate for demand accesses
system.l2.demand_mshr_miss_rate::total       0.735475                       # mshr miss rate for demand accesses
system.l2.overall_mshr_miss_rate::.cpu.inst     0.978448                       # mshr miss rate for overall accesses
system.l2.overall_mshr_miss_rate::.cpu.data     0.732691                       # mshr miss rate for overall accesses
system.l2.overall_mshr_miss_rate::total      0.735475                       # mshr miss rate for overall accesses
system.l2.demand_avg_mshr_miss_latency::.cpu.inst 95026.431718                       # average overall mshr miss latency
system.l2.demand_avg_mshr_miss_latency::.cpu.data 103045.966166                       # average overall mshr miss latency
system.l2.demand_avg_mshr_miss_latency::total 102925.119490                       # average overall mshr miss latency
system.l2.overall_avg_mshr_miss_latency::.cpu.inst 95026.431718                       # average overall mshr miss latency
system.l2.overall_avg_mshr_miss_latency::.cpu.data 103045.966166                       # average overall mshr miss latency
system.l2.overall_avg_mshr_miss_latency::total 102925.119490                       # average overall mshr miss latency
system.l2.replacements                          13326                       # number of replacements
system.l2.WritebackDirty_hits::.writebacks        19069                       # number of WritebackDirty hits
system.l2.WritebackDirty_hits::total            19069                       # number of WritebackDirty hits
system.l2.WritebackDirty_accesses::.writebacks        19069                       # number of WritebackDirty accesses(hits+misses)
system.l2.WritebackDirty_accesses::total        19069                       # number of WritebackDirty accesses(hits+misses)
system.l2.CleanEvict_mshr_misses::.writebacks          103                       # number of CleanEvict MSHR misses
system.l2.CleanEvict_mshr_misses::total           103                       # number of CleanEvict MSHR misses
system.l2.CleanEvict_mshr_miss_rate::.writebacks          inf                       # mshr miss rate for CleanEvict accesses
system.l2.CleanEvict_mshr_miss_rate::total          inf                       # mshr miss rate for CleanEvict accesses
system.l2.ReadExReq_misses::.cpu.data            9496                       # number of ReadExReq misses
system.l2.ReadExReq_misses::total                9496                       # number of ReadExReq misses
system.l2.ReadExReq_miss_latency::.cpu.data   1161676000                       # number of ReadExReq miss cycles
system.l2.ReadExReq_miss_latency::total    1161676000                       # number of ReadExReq miss cycles
system.l2.ReadExReq_accesses::.cpu.data          9496                       # number of ReadExReq accesses(hits+misses)
system.l2.ReadExReq_accesses::total              9496                       # number of ReadExReq accesses(hits+misses)
system.l2.ReadExReq_miss_rate::.cpu.data            1                       # miss rate for ReadExReq accesses
system.l2.ReadExReq_miss_rate::total                1                       # miss rate for ReadExReq accesses
system.l2.ReadExReq_avg_miss_latency::.cpu.data 122333.192923                       # average ReadExReq miss latency
system.l2.ReadExReq_avg_miss_latency::total 122333.192923                       # average ReadExReq miss latency
system.l2.ReadExReq_mshr_misses::.cpu.data         9496                       # number of ReadExReq MSHR misses
system.l2.ReadExReq_mshr_misses::total           9496                       # number of ReadExReq MSHR misses
system.l2.ReadExReq_mshr_miss_latency::.cpu.data    971756000                       # number of ReadExReq MSHR miss cycles
system.l2.ReadExReq_mshr_miss_latency::total    971756000                       # number of ReadExReq MSHR miss cycles
system.l2.ReadExReq_mshr_miss_rate::.cpu.data            1                       # mshr miss rate for ReadExReq accesses
system.l2.ReadExReq_mshr_miss_rate::total            1                       # mshr miss rate for ReadExReq accesses
system.l2.ReadExReq_avg_mshr_miss_latency::.cpu.data 102333.192923                       # average ReadExReq mshr miss latency
system.l2.ReadExReq_avg_mshr_miss_latency::total 102333.192923                       # average ReadExReq mshr miss latency
system.l2.ReadCleanReq_hits::.cpu.inst              5                       # number of ReadCleanReq hits
system.l2.ReadCleanReq_hits::total                  5                       # number of ReadCleanReq hits
system.l2.ReadCleanReq_misses::.cpu.inst          227                       # number of ReadCleanReq misses
system.l2.ReadCleanReq_misses::total              227                       # number of ReadCleanReq misses
system.l2.ReadCleanReq_miss_latency::.cpu.inst     26111000                       # number of ReadCleanReq miss cycles
system.l2.ReadCleanReq_miss_latency::total     26111000                       # number of ReadCleanReq miss cycles
system.l2.ReadCleanReq_accesses::.cpu.inst          232                       # number of ReadCleanReq accesses(hits+misses)
system.l2.ReadCleanReq_accesses::total            232                       # number of ReadCleanReq accesses(hits+misses)
system.l2.ReadCleanReq_miss_rate::.cpu.inst     0.978448                       # miss rate for ReadCleanReq accesses
system.l2.ReadCleanReq_miss_rate::total      0.978448                       # miss rate for ReadCleanReq accesses
system.l2.ReadCleanReq_avg_miss_latency::.cpu.inst 115026.431718                       # average ReadCleanReq miss latency
system.l2.ReadCleanReq_avg_miss_latency::total 115026.431718                       # average ReadCleanReq miss latency
system.l2.ReadCleanReq_mshr_misses::.cpu.inst          227                       # number of ReadCleanReq MSHR misses
system.l2.ReadCleanReq_mshr_misses::total          227                       # number of ReadCleanReq MSHR misses
system.l2.ReadCleanReq_mshr_miss_latency::.cpu.inst     21571000                       # number of ReadCleanReq MSHR miss cycles
system.l2.ReadCleanReq_mshr_miss_latency::total     21571000                       # number of ReadCleanReq MSHR miss cycles
system.l2.ReadCleanReq_mshr_miss_rate::.cpu.inst     0.978448                       # mshr miss rate for ReadCleanReq accesses
system.l2.ReadCleanReq_mshr_miss_rate::total     0.978448                       # mshr miss rate for ReadCleanReq accesses
system.l2.ReadCleanReq_avg_mshr_miss_latency::.cpu.inst 95026.431718                       # average ReadCleanReq mshr miss latency
system.l2.ReadCleanReq_avg_mshr_miss_latency::total 95026.431718                       # average ReadCleanReq mshr miss latency
system.l2.ReadSharedReq_hits::.cpu.data          5410                       # number of ReadSharedReq hits
system.l2.ReadSharedReq_hits::total              5410                       # number of ReadSharedReq hits
system.l2.ReadSharedReq_misses::.cpu.data         5344                       # number of ReadSharedReq misses
system.l2.ReadSharedReq_misses::total            5344                       # number of ReadSharedReq misses
system.l2.ReadSharedReq_miss_latency::.cpu.data    664278000                       # number of ReadSharedReq miss cycles
system.l2.ReadSharedReq_miss_latency::total    664278000                       # number of ReadSharedReq miss cycles
system.l2.ReadSharedReq_accesses::.cpu.data        10754                       # number of ReadSharedReq accesses(hits+misses)
system.l2.ReadSharedReq_accesses::total         10754                       # number of ReadSharedReq accesses(hits+misses)
system.l2.ReadSharedReq_miss_rate::.cpu.data     0.496931                       # miss rate for ReadSharedReq accesses
system.l2.ReadSharedReq_miss_rate::total     0.496931                       # miss rate for ReadSharedReq accesses
system.l2.ReadSharedReq_avg_miss_latency::.cpu.data 124303.517964                       # average ReadSharedReq miss latency
system.l2.ReadSharedReq_avg_miss_latency::total 124303.517964                       # average ReadSharedReq miss latency
system.l2.ReadSharedReq_mshr_hits::.cpu.data            3                       # number of ReadSharedReq MSHR hits
system.l2.ReadSharedReq_mshr_hits::total            3                       # number of ReadSharedReq MSHR hits
system.l2.ReadSharedReq_mshr_misses::.cpu.data         5341                       # number of ReadSharedReq MSHR misses
system.l2.ReadSharedReq_mshr_misses::total         5341                       # number of ReadSharedReq MSHR misses
system.l2.ReadSharedReq_mshr_miss_latency::.cpu.data    557137000                       # number of ReadSharedReq MSHR miss cycles
system.l2.ReadSharedReq_mshr_miss_latency::total    557137000                       # number of ReadSharedReq MSHR miss cycles
system.l2.ReadSharedReq_mshr_miss_rate::.cpu.data     0.496652                       # mshr miss rate for ReadSharedReq accesses
system.l2.ReadSharedReq_mshr_miss_rate::total     0.496652                       # mshr miss rate for ReadSharedReq accesses
system.l2.ReadSharedReq_avg_mshr_miss_latency::.cpu.data 104313.237221                       # average ReadSharedReq mshr miss latency
system.l2.ReadSharedReq_avg_mshr_miss_latency::total 104313.237221                       # average ReadSharedReq mshr miss latency
system.l2.power_state.pwrStateResidencyTicks::UNDEFINED 107200752000                       # Cumulative time (in ticks) in various power states
system.l2.tags.tagsinuse                  2008.459138                       # Cycle average of tags in use
system.l2.tags.total_refs                       40092                       # Total number of references to valid blocks.
system.l2.tags.sampled_refs                     15374                       # Sample count of references to valid blocks.
system.l2.tags.avg_refs                      2.607779                       # Average number of references to valid blocks.
system.l2.tags.warmup_cycle                    102000                       # Cycle when the warmup percentage was hit.
system.l2.tags.occ_blocks::.writebacks      31.843766                       # Average occupied blocks per requestor
system.l2.tags.occ_blocks::.cpu.inst         9.441701                       # Average occupied blocks per requestor
system.l2.tags.occ_blocks::.cpu.data      1967.173671                       # Average occupied blocks per requestor
system.l2.tags.occ_percent::.writebacks      0.015549                       # Average percentage of cache occupancy
system.l2.tags.occ_percent::.cpu.inst        0.004610                       # Average percentage of cache occupancy
system.l2.tags.occ_percent::.cpu.data        0.960534                       # Average percentage of cache occupancy
system.l2.tags.occ_percent::total            0.980693                       # Average percentage of cache occupancy
system.l2.tags.occ_task_id_blocks::1024          2048                       # Occupied blocks per task id
system.l2.tags.age_task_id_blocks_1024::0            1                       # Occupied blocks per task id
system.l2.tags.age_task_id_blocks_1024::1            5                       # Occupied blocks per task id
system.l2.tags.age_task_id_blocks_1024::2           75                       # Occupied blocks per task id
system.l2.tags.age_task_id_blocks_1024::3         1037                       # Occupied blocks per task id
system.l2.tags.age_task_id_blocks_1024::4          930                       # Occupied blocks per task id
system.l2.tags.occ_task_id_percent::1024            1                       # Percentage of cache occupancy per task id
system.l2.tags.tag_accesses                    176166                       # Number of tag accesses
system.l2.tags.data_accesses                   176166                       # Number of data accesses
system.l2.tags.power_state.pwrStateResidencyTicks::UNDEFINED 107200752000                       # Cumulative time (in ticks) in various power states
system.mem_ctrls.avgPriority_.writebacks::samples     50504.00                       # Average QoS priority value for accepted requests
system.mem_ctrls.avgPriority_.cpu.inst::samples       908.00                       # Average QoS priority value for accepted requests
system.mem_ctrls.avgPriority_.cpu.data::samples     59321.00                       # Average QoS priority value for accepted requests
system.mem_ctrls.priorityMinLatency      0.000000018750                       # per QoS priority minimum request to response latency (s)
system.mem_ctrls.priorityMaxLatency      0.000606818500                       # per QoS priority maximum request to response latency (s)
system.mem_ctrls.numReadWriteTurnArounds         2506                       # Number of turnarounds from READ to WRITE
system.mem_ctrls.numWriteReadTurnArounds         2506                       # Number of turnarounds from WRITE to READ
system.mem_ctrls.numStayReadState              115021                       # Number of times bus staying in READ state
system.mem_ctrls.numStayWriteState              48040                       # Number of times bus staying in WRITE state
system.mem_ctrls.readReqs                       15064                       # Number of read requests accepted
system.mem_ctrls.writeReqs                      12626                       # Number of write requests accepted
system.mem_ctrls.readBursts                     60256                       # Number of controller read bursts, including those serviced by the write queue
system.mem_ctrls.writeBursts                    50504                       # Number of controller write bursts, including those merged in the write queue
system.mem_ctrls.servicedByWrQ                     27                       # Number of controller read bursts serviced by the write queue
system.mem_ctrls.mergedWrBursts                     0                       # Number of controller write bursts merged with an existing one
system.mem_ctrls.neitherReadNorWriteReqs            0                       # Number of requests that are neither read nor write
system.mem_ctrls.avgRdQLen                       4.18                       # Average read queue length when enqueuing
system.mem_ctrls.avgWrQLen                      25.78                       # Average write queue length when enqueuing
system.mem_ctrls.numRdRetry                         0                       # Number of times read queue was full causing retry
system.mem_ctrls.numWrRetry                         0                       # Number of times write queue was full causing retry
system.mem_ctrls.readPktSize::0                     0                       # Read request sizes (log2)
system.mem_ctrls.readPktSize::1                     0                       # Read request sizes (log2)
system.mem_ctrls.readPktSize::2                     0                       # Read request sizes (log2)
system.mem_ctrls.readPktSize::3                     0                       # Read request sizes (log2)
system.mem_ctrls.readPktSize::4                     0                       # Read request sizes (log2)
system.mem_ctrls.readPktSize::5                     0                       # Read request sizes (log2)
system.mem_ctrls.readPktSize::6                 60256                       # Read request sizes (log2)
system.mem_ctrls.readPktSize::7                     0                       # Read request sizes (log2)
system.mem_ctrls.readPktSize::8                     0                       # Read request sizes (log2)
system.mem_ctrls.writePktSize::0                    0                       # Write request sizes (log2)
system.mem_ctrls.writePktSize::1                    0                       # Write request sizes (log2)
system.mem_ctrls.writePktSize::2                    0                       # Write request sizes (log2)
system.mem_ctrls.writePktSize::3                    0                       # Write request sizes (log2)
system.mem_ctrls.writePktSize::4                    0                       # Write request sizes (log2)
system.mem_ctrls.writePktSize::5                    0                       # Write request sizes (log2)
system.mem_ctrls.writePktSize::6                50504                       # Write request sizes (log2)
system.mem_ctrls.writePktSize::7                    0                       # Write request sizes (log2)
system.mem_ctrls.writePktSize::8                    0                       # Write request sizes (log2)
system.mem_ctrls.rdQLenPdf::0                   14379                       # What read queue length does an incoming req see
system.mem_ctrls.rdQLenPdf::1                   14378                       # What read queue length does an incoming req see
system.mem_ctrls.rdQLenPdf::2                   14686                       # What read queue length does an incoming req see
system.mem_ctrls.rdQLenPdf::3                   14709                       # What read queue length does an incoming req see
system.mem_ctrls.rdQLenPdf::4                     675                       # What read queue length does an incoming req see
system.mem_ctrls.rdQLenPdf::5                     675                       # What read queue length does an incoming req see
system.mem_ctrls.rdQLenPdf::6                     367                       # What read queue length does an incoming req see
system.mem_ctrls.rdQLenPdf::7                     346                       # What read queue length does an incoming req see
system.mem_ctrls.rdQLenPdf::8                       4                       # What read queue length does an incoming req see
system.mem_ctrls.rdQLenPdf::9                       4                       # What read queue length does an incoming req see
system.mem_ctrls.rdQLenPdf::10                      4                       # What read queue length does an incoming req see
[...]
system.mem_ctrls.dram.bw_inst_read::total       542086                       # Instruction read bandwidth from this memory (bytes/s)
system.mem_ctrls.dram.bw_write::.writebacks     30151430                       # Write bandwidth from this memory (bytes/s)
system.mem_ctrls.dram.bw_write::total        30151430                       # Write bandwidth from this memory (bytes/s)
system.mem_ctrls.dram.bw_total::.writebacks     30151430                       # Total bandwidth to/from this memory (bytes/s)
system.mem_ctrls.dram.bw_total::.cpu.inst       542086                       # Total bandwidth to/from this memory (bytes/s)
system.mem_ctrls.dram.bw_total::.cpu.data     35431393                       # Total bandwidth to/from this memory (bytes/s)
system.mem_ctrls.dram.bw_total::total        66124909                       # Total bandwidth to/from this memory (bytes/s)
system.mem_ctrls.dram.readBursts                60229                       # Number of DRAM read bursts
system.mem_ctrls.dram.writeBursts               50473                       # Number of DRAM write bursts
system.mem_ctrls.dram.perBankRdBursts::0         3548                       # Per bank write bursts
system.mem_ctrls.dram.perBankRdBursts::1         3601                       # Per bank write bursts
system.mem_ctrls.dram.perBankRdBursts::2         3748                       # Per bank write bursts
system.mem_ctrls.dram.perBankRdBursts::3         4128                       # Per bank write bursts
system.mem_ctrls.dram.perBankRdBursts::4         3708                       # Per bank write bursts
system.mem_ctrls.dram.perBankRdBursts::5         3924                       # Per bank write bursts
system.mem_ctrls.dram.perBankRdBursts::6         4252                       # Per bank write bursts
system.mem_ctrls.dram.perBankRdBursts::7         3720                       # Per bank write bursts
system.mem_ctrls.dram.perBankRdBursts::8         3928                       # Per bank write bursts
system.mem_ctrls.dram.perBankRdBursts::9         4012                       # Per bank write bursts
system.mem_ctrls.dram.perBankRdBursts::10         3832                       # Per bank write bursts
system.mem_ctrls.dram.perBankRdBursts::11         3828                       # Per bank write bursts
system.mem_ctrls.dram.perBankRdBursts::12         3476                       # Per bank write bursts
system.mem_ctrls.dram.perBankRdBursts::13         3588                       # Per bank write bursts
system.mem_ctrls.dram.perBankRdBursts::14         3524                       # Per bank write bursts
system.mem_ctrls.dram.perBankRdBursts::15         3412                       # Per bank write bursts
system.mem_ctrls.dram.perBankWrBursts::0         2956                       # Per bank write bursts
system.mem_ctrls.dram.perBankWrBursts::1         3032                       # Per bank write bursts
system.mem_ctrls.dram.perBankWrBursts::2         3040                       # Per bank write bursts
system.mem_ctrls.dram.perBankWrBursts::3         3292                       # Per bank write bursts
system.mem_ctrls.dram.perBankWrBursts::4         3056                       # Per bank write bursts
system.mem_ctrls.dram.perBankWrBursts::5         3312                       # Per bank write bursts
system.mem_ctrls.dram.perBankWrBursts::6         3680                       # Per bank write bursts
system.mem_ctrls.dram.perBankWrBursts::7         3092                       # Per bank write bursts
system.mem_ctrls.dram.perBankWrBursts::8         3324                       # Per bank write bursts
system.mem_ctrls.dram.perBankWrBursts::9         3432                       # Per bank write bursts
system.mem_ctrls.dram.perBankWrBursts::10         3200                       # Per bank write bursts
system.mem_ctrls.dram.perBankWrBursts::11         3249                       # Per bank write bursts
system.mem_ctrls.dram.perBankWrBursts::12         2924                       # Per bank write bursts
system.mem_ctrls.dram.perBankWrBursts::13         3052                       # Per bank write bursts
system.mem_ctrls.dram.perBankWrBursts::14         3000                       # Per bank write bursts
system.mem_ctrls.dram.perBankWrBursts::15         2832                       # Per bank write bursts
system.mem_ctrls.dram.totQLat              1518094750                       # Total ticks spent queuing
system.mem_ctrls.dram.totBusLat             301145000                       # Total ticks spent in databus transfers
system.mem_ctrls.dram.totMemAccLat         2647388500                       # Total ticks spent from burst creation until serviced by the DRAM
system.mem_ctrls.dram.avgQLat                25205.38                       # Average queueing delay per DRAM burst
system.mem_ctrls.dram.avgBusLat               5000.00                       # Average bus latency per DRAM burst
system.mem_ctrls.dram.avgMemAccLat           43955.38                       # Average memory access latency per DRAM burst
system.mem_ctrls.dram.readRowHits               46757                       # Number of row buffer hits during reads
system.mem_ctrls.dram.writeRowHits              40134                       # Number of row buffer hits during writes
system.mem_ctrls.dram.readRowHitRate            77.63                       # Row buffer hit rate for reads
system.mem_ctrls.dram.writeRowHitRate           79.52                       # Row buffer hit rate for writes
system.mem_ctrls.dram.bytesPerActivate::samples        23810                       # Bytes accessed per row activation
system.mem_ctrls.dram.bytesPerActivate::mean   297.550273                       # Bytes accessed per row activation
system.mem_ctrls.dram.bytesPerActivate::gmean   266.451861                       # Bytes accessed per row activation
system.mem_ctrls.dram.bytesPerActivate::stdev   160.273980                       # Bytes accessed per row activation
system.mem_ctrls.dram.bytesPerActivate::0-127         1281      5.38%      5.38% # Bytes accessed per row activation
system.mem_ctrls.dram.bytesPerActivate::128-255         1034      4.34%      9.72% # Bytes accessed per row activation
system.mem_ctrls.dram.bytesPerActivate::256-383        18004     75.62%     85.34% # Bytes accessed per row activation
system.mem_ctrls.dram.bytesPerActivate::384-511          395      1.66%     87.00% # Bytes accessed per row activation
system.mem_ctrls.dram.bytesPerActivate::512-639         1959      8.23%     95.22% # Bytes accessed per row activation
system.mem_ctrls.dram.bytesPerActivate::640-767          200      0.84%     96.06% # Bytes accessed per row activation
system.mem_ctrls.dram.bytesPerActivate::768-895          398      1.67%     97.74% # Bytes accessed per row activation
system.mem_ctrls.dram.bytesPerActivate::896-1023          102      0.43%     98.16% # Bytes accessed per row activation
system.mem_ctrls.dram.bytesPerActivate::1024-1151          437      1.84%    100.00% # Bytes accessed per row activation
system.mem_ctrls.dram.bytesPerActivate::total        23810                       # Bytes accessed per row activation
system.mem_ctrls.dram.bytesRead               3854656                       # Total number of bytes read from DRAM
system.mem_ctrls.dram.bytesWritten            3230272                       # Total number of bytes written to DRAM
system.mem_ctrls.dram.avgRdBW               35.957360                       # Average DRAM read bandwidth in MiBytes/s
system.mem_ctrls.dram.avgWrBW               30.132923                       # Average DRAM write bandwidth in MiBytes/s
system.mem_ctrls.dram.peakBW                 12800.00                       # Theoretical peak bandwidth in MiByte/s
system.mem_ctrls.dram.busUtil                    0.52                       # Data bus utilization in percentage
system.mem_ctrls.dram.busUtilRead                0.28                       # Data bus utilization in percentage for reads
system.mem_ctrls.dram.busUtilWrite               0.24                       # Data bus utilization in percentage for writes
system.mem_ctrls.dram.pageHitRate               78.49                       # Row buffer hit rate, read and write combined
system.mem_ctrls.dram.power_state.pwrStateResidencyTicks::UNDEFINED 107200752000                       # Cumulative time (in ticks) in various power states
system.mem_ctrls.dram.rank0.actEnergy        86194080                       # Energy for activate commands per rank (pJ)
system.mem_ctrls.dram.rank0.preEnergy        45809445                       # Energy for precharge commands per rank (pJ)
system.mem_ctrls.dram.rank0.readEnergy      218691060                       # Energy for read commands per rank (pJ)
system.mem_ctrls.dram.rank0.writeEnergy     132901200                       # Energy for write commands per rank (pJ)
system.mem_ctrls.dram.rank0.refreshEnergy 8461748880.000001                       # Energy for refresh commands per rank (pJ)
system.mem_ctrls.dram.rank0.actBackEnergy  12780368430                       # Energy for active background per rank (pJ)
system.mem_ctrls.dram.rank0.preBackEnergy  30402673440                       # Energy for precharge background per rank (pJ)
system.mem_ctrls.dram.rank0.actPowerDownEnergy            0                       # Energy for active power-down per rank (pJ)
system.mem_ctrls.dram.rank0.prePowerDownEnergy            0                       # Energy for precharge power-down per rank (pJ)
system.mem_ctrls.dram.rank0.selfRefreshEnergy            0                       # Energy for self refresh per rank (pJ)
system.mem_ctrls.dram.rank0.totalEnergy   52128386535                       # Total energy per rank (pJ)
system.mem_ctrls.dram.rank0.averagePower   486.268851                       # Core power per rank (mW)
system.mem_ctrls.dram.rank0.totalIdleTime            0                       # Total Idle time Per DRAM Rank
system.mem_ctrls.dram.rank0.pwrStateTime::IDLE  78895824250                       # Time in different power states
system.mem_ctrls.dram.rank0.pwrStateTime::REF   3579420000                       # Time in different power states
system.mem_ctrls.dram.rank0.pwrStateTime::SREF            0                       # Time in different power states
system.mem_ctrls.dram.rank0.pwrStateTime::PRE_PDN            0                       # Time in different power states
system.mem_ctrls.dram.rank0.pwrStateTime::ACT  24725507750                       # Time in different power states
system.mem_ctrls.dram.rank0.pwrStateTime::ACT_PDN            0                       # Time in different power states
system.mem_ctrls.dram.rank1.actEnergy        83816460                       # Energy for activate commands per rank (pJ)
system.mem_ctrls.dram.rank1.preEnergy        44549505                       # Energy for precharge commands per rank (pJ)
system.mem_ctrls.dram.rank1.readEnergy      211344000                       # Energy for read commands per rank (pJ)
system.mem_ctrls.dram.rank1.writeEnergy     130567860                       # Energy for write commands per rank (pJ)
system.mem_ctrls.dram.rank1.refreshEnergy 8461748880.000001                       # Energy for refresh commands per rank (pJ)
system.mem_ctrls.dram.rank1.actBackEnergy  12693176100                       # Energy for active background per rank (pJ)
system.mem_ctrls.dram.rank1.preBackEnergy  30476098560                       # Energy for precharge background per rank (pJ)
system.mem_ctrls.dram.rank1.actPowerDownEnergy            0                       # Energy for active power-down per rank (pJ)
system.mem_ctrls.dram.rank1.prePowerDownEnergy            0                       # Energy for precharge power-down per rank (pJ)
system.mem_ctrls.dram.rank1.selfRefreshEnergy            0                       # Energy for self refresh per rank (pJ)
system.mem_ctrls.dram.rank1.totalEnergy   52101301365                       # Total energy per rank (pJ)
system.mem_ctrls.dram.rank1.averagePower   486.016193                       # Core power per rank (mW)
system.mem_ctrls.dram.rank1.totalIdleTime            0                       # Total Idle time Per DRAM Rank
system.mem_ctrls.dram.rank1.pwrStateTime::IDLE  79086429250                       # Time in different power states
system.mem_ctrls.dram.rank1.pwrStateTime::REF   3579420000                       # Time in different power states
system.mem_ctrls.dram.rank1.pwrStateTime::SREF            0                       # Time in different power states
system.mem_ctrls.dram.rank1.pwrStateTime::PRE_PDN            0                       # Time in different power states
system.mem_ctrls.dram.rank1.pwrStateTime::ACT  24534902750                       # Time in different power states
system.mem_ctrls.dram.rank1.pwrStateTime::ACT_PDN            0                       # Time in different power states
system.mem_ctrls.power_state.pwrStateResidencyTicks::UNDEFINED 107200752000                       # Cumulative time (in ticks) in various power states
system.membus.trans_dist::ReadResp               5568                       # Transaction distribution
system.membus.trans_dist::WritebackDirty        12626                       # Transaction distribution
system.membus.trans_dist::CleanEvict              122                       # Transaction distribution
system.membus.trans_dist::ReadExReq              9496                       # Transaction distribution
system.membus.trans_dist::ReadExResp             9496                       # Transaction distribution
system.membus.trans_dist::ReadSharedReq          5568                       # Transaction distribution
system.membus.pkt_count_system.l2.mem_side_port::system.mem_ctrls.port        42876                       # Packet count per connected requestor and responder (bytes)
system.membus.pkt_count::total                  42876                       # Packet count per connected requestor and responder (bytes)
system.membus.pkt_size_system.l2.mem_side_port::system.mem_ctrls.port      7088640                       # Cumulative packet size per connected requestor and responder (bytes)
system.membus.pkt_size::total                 7088640                       # Cumulative packet size per connected requestor and responder (bytes)
system.membus.snoops                                0                       # Total snoops (count)
system.membus.snoopTraffic                          0                       # Total snoop traffic (bytes)
system.membus.snoop_fanout::samples             15064                       # Request fanout histogram
system.membus.snoop_fanout::mean                    0                       # Request fanout histogram
system.membus.snoop_fanout::stdev                   0                       # Request fanout histogram
system.membus.snoop_fanout::underflows              0      0.00%      0.00% # Request fanout histogram
system.membus.snoop_fanout::0                   15064    100.00%    100.00% # Request fanout histogram
system.membus.snoop_fanout::1                       0      0.00%    100.00% # Request fanout histogram
system.membus.snoop_fanout::overflows               0      0.00%    100.00% # Request fanout histogram
system.membus.snoop_fanout::min_value               0                       # Request fanout histogram
system.membus.snoop_fanout::max_value               0                       # Request fanout histogram
system.membus.snoop_fanout::total               15064                       # Request fanout histogram
system.membus.power_state.pwrStateResidencyTicks::UNDEFINED 107200752000                       # Cumulative time (in ticks) in various power states
system.membus.reqLayer0.occupancy           229828000                       # Layer occupancy (ticks)
system.membus.reqLayer0.utilization               0.2                       # Layer utilization (%)
system.membus.respLayer1.occupancy          263237750                       # Layer occupancy (ticks)
system.membus.respLayer1.utilization              0.2                       # Layer utilization (%)
system.tol2bus.trans_dist::ReadResp             10986                       # Transaction distribution
system.tol2bus.trans_dist::WritebackDirty        31695                       # Transaction distribution
system.tol2bus.trans_dist::CleanEvict            1369                       # Transaction distribution
system.tol2bus.trans_dist::ReadExReq             9496                       # Transaction distribution
system.tol2bus.trans_dist::ReadExResp            9496                       # Transaction distribution
system.tol2bus.trans_dist::ReadCleanReq           232                       # Transaction distribution
system.tol2bus.trans_dist::ReadSharedReq        10754                       # Transaction distribution
system.tol2bus.pkt_count_system.cpu.icache.mem_side_port::system.l2.cpu_side_port          464                       # Packet count per connected requestor and responder (bytes)
system.tol2bus.pkt_count_system.cpu.dcache.mem_side_port::system.l2.cpu_side_port        60238                       # Packet count per connected requestor and responder (bytes)
system.tol2bus.pkt_count::total                 60702                       # Packet count per connected requestor and responder (bytes)
system.tol2bus.pkt_size_system.cpu.icache.mem_side_port::system.l2.cpu_side_port        59392                       # Cumulative packet size per connected requestor and responder (bytes)
system.tol2bus.pkt_size_system.cpu.dcache.mem_side_port::system.l2.cpu_side_port     10065664                       # Cumulative packet size per connected requestor and responder (bytes)
system.tol2bus.pkt_size::total               10125056                       # Cumulative packet size per connected requestor and responder (bytes)
system.tol2bus.snoops                           13326                       # Total snoops (count)
system.tol2bus.snoopTraffic                   3232256                       # Total snoop traffic (bytes)
system.tol2bus.snoop_fanout::samples            33808                       # Request fanout histogram
system.tol2bus.snoop_fanout::mean            0.021090                       # Request fanout histogram
system.tol2bus.snoop_fanout::stdev           0.144711                       # Request fanout histogram
system.tol2bus.snoop_fanout::underflows             0      0.00%      0.00% # Request fanout histogram
system.tol2bus.snoop_fanout::0                  33100     97.91%     97.91% # Request fanout histogram
system.tol2bus.snoop_fanout::1                    703      2.08%     99.99% # Request fanout histogram
system.tol2bus.snoop_fanout::2                      5      0.01%    100.00% # Request fanout histogram
system.tol2bus.snoop_fanout::overflows              0      0.00%    100.00% # Request fanout histogram
system.tol2bus.snoop_fanout::min_value              0                       # Request fanout histogram
system.tol2bus.snoop_fanout::max_value              2                       # Request fanout histogram
system.tol2bus.snoop_fanout::total              33808                       # Request fanout histogram
system.tol2bus.power_state.pwrStateResidencyTicks::UNDEFINED 107200752000                       # Cumulative time (in ticks) in various power states
system.tol2bus.reqLayer0.occupancy          192772000                       # Layer occupancy (ticks)
system.tol2bus.reqLayer0.utilization              0.2                       # Layer utilization (%)
system.tol2bus.respLayer0.occupancy           2088000                       # Layer occupancy (ticks)
system.tol2bus.respLayer0.utilization             0.0                       # Layer utilization (%)
system.tol2bus.respLayer1.occupancy         182252997                       # Layer occupancy (ticks)
system.tol2bus.respLayer1.utilization             0.2                       # Layer utilization (%)
system.voltage_domain.voltage                       1                       # Voltage in Volts

---------- End Simulation Statistics   ----------
