
---------- Begin Simulation Statistics ----------
final_tick                                   60140500                       # Number of ticks from beginning of simulation (restored from checkpoints and never reset)
host_inst_rate                                 152931                       # Simulator instruction rate (inst/s)
host_mem_usage                                 716116                       # Number of bytes of host memory used
host_op_rate                                   170715                       # Simulator op (including micro ops) rate (op/s)
host_seconds                                     0.10                       # Real time elapsed on the host
host_tick_rate                              594068656                       # Simulator tick rate (ticks/s)
sim_freq                                 1000000000000                       # Frequency of simulated ticks
sim_insts                                       15426                       # Number of instructions simulated
sim_ops                                         17266                       # Number of ops (including micro ops) simulated
sim_seconds                                  0.000060                       # Number of seconds simulated
sim_ticks                                    60140500                       # Number of ticks simulated
system.cpu.committedInsts                       15426                       # Number of instructions committed
system.cpu.committedOps                         17266                       # Number of ops (including micro ops) committed
system.cpu.cpi                               7.797290                       # CPI: cycles per instruction
system.cpu.discardedOps                          2730                       # Number of ops (including micro ops) which were discarded before commit
system.cpu.idleCycles                           92623                       # Total number of cycles that the object has spent stopped
system.cpu.ipc                               0.128250                       # IPC: instructions per cycle
system.cpu.numCycles                           120281                       # number of cpu cycles simulated
system.cpu.numFetchSuspends                         0                       # Number of times Execute suspended instruction fetching
system.cpu.numWorkItemsCompleted                    0                       # number of work items this cpu completed
system.cpu.numWorkItemsStarted                      0                       # number of work items this cpu started
system.cpu.op_class_0::No_OpClass                   0      0.00%      0.00% # Class of committed instruction
system.cpu.op_class_0::IntAlu                   12030     69.67%     69.67% # Class of committed instruction
system.cpu.op_class_0::IntMult                    125      0.72%     70.40% # Class of committed instruction
system.cpu.op_class_0::IntDiv                       0      0.00%     70.40% # Class of committed instruction
system.cpu.op_class_0::FloatAdd                     0      0.00%     70.40% # Class of committed instruction
system.cpu.op_class_0::FloatCmp                     0      0.00%     70.40% # Class of committed instruction
system.cpu.op_class_0::FloatCvt                     0      0.00%     70.40% # Class of committed instruction
system.cpu.op_class_0::FloatMult                    0      0.00%     70.40% # Class of committed instruction
system.cpu.op_class_0::FloatMultAcc                 0      0.00%     70.40% # Class of committed instruction
system.cpu.op_class_0::FloatDiv                     0      0.00%     70.40% # Class of committed instruction
system.cpu.op_class_0::FloatMisc                    0      0.00%     70.40% # Class of committed instruction
system.cpu.op_class_0::FloatSqrt                    0      0.00%     70.40% # Class of committed instruction
system.cpu.op_class_0::SimdAdd                      0      0.00%     70.40% # Class of committed instruction
system.cpu.op_class_0::SimdAddAcc                   0      0.00%     70.40% # Class of committed instruction
system.cpu.op_class_0::SimdAlu                      0      0.00%     70.40% # Class of committed instruction
system.cpu.op_class_0::SimdCmp                      0      0.00%     70.40% # Class of committed instruction
system.cpu.op_class_0::SimdCvt                      0      0.00%     70.40% # Class of committed instruction
system.cpu.op_class_0::SimdMisc                     0      0.00%     70.40% # Class of committed instruction
system.cpu.op_class_0::SimdMult                     0      0.00%     70.40% # Class of committed instruction
system.cpu.op_class_0::SimdMultAcc                  0      0.00%     70.40% # Class of committed instruction
system.cpu.op_class_0::SimdShift                    0      0.00%     70.40% # Class of committed instruction
system.cpu.op_class_0::SimdShiftAcc                 0      0.00%     70.40% # Class of committed instruction
system.cpu.op_class_0::SimdDiv                      0      0.00%     70.40% # Class of committed instruction
system.cpu.op_class_0::SimdSqrt                     0      0.00%     70.40% # Class of committed instruction
system.cpu.op_class_0::SimdFloatAdd                 0      0.00%     70.40% # Class of committed instruction
system.cpu.op_class_0::SimdFloatAlu                 0      0.00%     70.40% # Class of committed instruction
system.cpu.op_class_0::SimdFloatCmp                 0      0.00%     70.40% # Class of committed instruction
system.cpu.op_class_0::SimdFloatCvt                 2      0.01%     70.41% # Class of committed instruction
system.cpu.op_class_0::SimdFloatDiv                 0      0.00%     70.41% # Class of committed instruction
system.cpu.op_class_0::SimdFloatMisc                6      0.03%     70.44% # Class of committed instruction
system.cpu.op_class_0::SimdFloatMult                0      0.00%     70.44% # Class of committed instruction
system.cpu.op_class_0::SimdFloatMultAcc             0      0.00%     70.44% # Class of committed instruction
system.cpu.op_class_0::SimdFloatSqrt                0      0.00%     70.44% # Class of committed instruction
system.cpu.op_class_0::SimdReduceAdd                0      0.00%     70.44% # Class of committed instruction
system.cpu.op_class_0::SimdReduceAlu                0      0.00%     70.44% # Class of committed instruction
system.cpu.op_class_0::SimdReduceCmp                0      0.00%     70.44% # Class of committed instruction
system.cpu.op_class_0::SimdFloatReduceAdd            0      0.00%     70.44% # Class of committed instruction
system.cpu.op_class_0::SimdFloatReduceCmp            0      0.00%     70.44% # Class of committed instruction
system.cpu.op_class_0::SimdAes                      0      0.00%     70.44% # Class of committed instruction
system.cpu.op_class_0::SimdAesMix                   0      0.00%     70.44% # Class of committed instruction
system.cpu.op_class_0::SimdSha1Hash                 0      0.00%     70.44% # Class of committed instruction
system.cpu.op_class_0::SimdSha1Hash2                0      0.00%     70.44% # Class of committed instruction
system.cpu.op_class_0::SimdSha256Hash               0      0.00%     70.44% # Class of committed instruction
system.cpu.op_class_0::SimdSha256Hash2              0      0.00%     70.44% # Class of committed instruction
system.cpu.op_class_0::SimdShaSigma2                0      0.00%     70.44% # Class of committed instruction
system.cpu.op_class_0::SimdShaSigma3                0      0.00%     70.44% # Class of committed instruction
system.cpu.op_class_0::SimdPredAlu                  0      0.00%     70.44% # Class of committed instruction
system.cpu.op_class_0::MemRead                   3011     17.44%     87.88% # Class of committed instruction
system.cpu.op_class_0::MemWrite                  2092     12.12%    100.00% # Class of committed instruction
system.cpu.op_class_0::FloatMemRead                 0      0.00%    100.00% # Class of committed instruction
system.cpu.op_class_0::FloatMemWrite                0      0.00%    100.00% # Class of committed instruction
system.cpu.op_class_0::IprAccess                    0      0.00%    100.00% # Class of committed instruction
system.cpu.op_class_0::InstPrefetch                 0      0.00%    100.00% # Class of committed instruction
system.cpu.op_class_0::total                    17266                       # Class of committed instruction
system.cpu.tickCycles                           27658                       # Number of cycles that the object actually ticked
system.cpu.workload.numSyscalls                    13                       # Number of system calls
system.membus.snoop_filter.hit_multi_requests            0                       # Number of requests hitting in the snoop filter with multiple (>1) holders of the requested data.
system.membus.snoop_filter.hit_multi_snoops            0                       # Number of snoops hitting in the snoop filter with multiple (>1) holders of the requested data.
system.membus.snoop_filter.hit_single_requests            0                       # Number of requests hitting in the snoop filter with a single holder of the requested data.
system.membus.snoop_filter.hit_single_snoops            0                       # Number of snoops hitting in the snoop filter with a single holder of the requested data.
system.membus.snoop_filter.tot_requests           738                       # Total number of requests made to the snoop filter.
system.membus.snoop_filter.tot_snoops               0                       # Total number of snoops made to the snoop filter.
system.tol2bus.snoop_filter.hit_multi_requests            9                       # Number of requests hitting in the snoop filter with multiple (>1) holders of the requested data.
system.tol2bus.snoop_filter.hit_multi_snoops            0                       # Number of snoops hitting in the snoop filter with multiple (>1) holders of the requested data.
system.tol2bus.snoop_filter.hit_single_requests          157                       # Number of requests hitting in the snoop filter with a single holder of the requested data.
system.tol2bus.snoop_filter.hit_single_snoops            0                       # Number of snoops hitting in the snoop filter with a single holder of the requested data.
system.tol2bus.snoop_filter.tot_requests          925                       # Total number of requests made to the snoop filter.
system.tol2bus.snoop_filter.tot_snoops              0                       # Total number of snoops made to the snoop filter.
system.clk_domain.clock                          1000                       # Clock period in ticks
system.cpu.branchPred.lookups                    4670                       # Number of BP lookups
system.cpu.branchPred.condPredicted              3017                       # Number of conditional branches predicted
system.cpu.branchPred.condIncorrect               851                       # Number of conditional branches incorrect
system.cpu.branchPred.BTBLookups                 2492                       # Number of BTB lookups
system.cpu.branchPred.BTBHits                    1076                       # Number of BTB hits
system.cpu.branchPred.BTBHitPct             43.178170                       # BTB Hit Percentage
system.cpu.branchPred.RASUsed                     397                       # Number of times the RAS was used to get a target.
system.cpu.branchPred.RASIncorrect                  2                       # Number of incorrect RAS predictions.
system.cpu.branchPred.indirectLookups             149                       # Number of indirect predictor lookups.
system.cpu.branchPred.indirectHits                 13                       # Number of indirect target hits.
system.cpu.branchPred.indirectMisses              136                       # Number of indirect misses.
system.cpu.branchPred.indirectMispredicted           67                       # Number of mispredicted indirect branches.
system.cpu.dcache.demand_hits::.cpu.data         5047                       # number of demand (read+write) hits
system.cpu.dcache.demand_hits::total             5047                       # number of demand (read+write) hits
system.cpu.dcache.overall_hits::.cpu.data         5098                       # number of overall hits
system.cpu.dcache.overall_hits::total            5098                       # number of overall hits
system.cpu.dcache.demand_misses::.cpu.data          256                       # number of demand (read+write) misses
system.cpu.dcache.demand_misses::total            256                       # number of demand (read+write) misses
system.cpu.dcache.overall_misses::.cpu.data          281                       # number of overall misses
system.cpu.dcache.overall_misses::total           281                       # number of overall misses
system.cpu.dcache.demand_miss_latency::.cpu.data     20476000                       # number of demand (read+write) miss cycles
system.cpu.dcache.demand_miss_latency::total     20476000                       # number of demand (read+write) miss cycles
system.cpu.dcache.overall_miss_latency::.cpu.data     20476000                       # number of overall miss cycles
system.cpu.dcache.overall_miss_latency::total     20476000                       # number of overall miss cycles
system.cpu.dcache.demand_accesses::.cpu.data         5303                       # number of demand (read+write) accesses
system.cpu.dcache.demand_accesses::total         5303                       # number of demand (read+write) accesses
system.cpu.dcache.overall_accesses::.cpu.data         5379                       # number of overall (read+write) accesses
system.cpu.dcache.overall_accesses::total         5379                       # number of overall (read+write) accesses
system.cpu.dcache.demand_miss_rate::.cpu.data     0.048275                       # miss rate for demand accesses
system.cpu.dcache.demand_miss_rate::total     0.048275                       # miss rate for demand accesses
system.cpu.dcache.overall_miss_rate::.cpu.data     0.052240                       # miss rate for overall accesses
system.cpu.dcache.overall_miss_rate::total     0.052240                       # miss rate for overall accesses
system.cpu.dcache.demand_avg_miss_latency::.cpu.data 79984.375000                       # average overall miss latency
system.cpu.dcache.demand_avg_miss_latency::total 79984.375000                       # average overall miss latency
system.cpu.dcache.overall_avg_miss_latency::.cpu.data 72868.327402                       # average overall miss latency
system.cpu.dcache.overall_avg_miss_latency::total 72868.327402                       # average overall miss latency
system.cpu.dcache.blocked_cycles::no_mshrs            0                       # number of cycles access was blocked
system.cpu.dcache.blocked_cycles::no_targets            0                       # number of cycles access was blocked
system.cpu.dcache.blocked::no_mshrs                 0                       # number of cycles access was blocked
system.cpu.dcache.blocked::no_targets               0                       # number of cycles access was blocked
system.cpu.dcache.avg_blocked_cycles::no_mshrs          nan                       # average number of cycles each access was blocked
system.cpu.dcache.avg_blocked_cycles::no_targets          nan                       # average number of cycles each access was blocked
system.cpu.dcache.demand_mshr_hits::.cpu.data           57                       # number of demand (read+write) MSHR hits
system.cpu.dcache.demand_mshr_hits::total           57                       # number of demand (read+write) MSHR hits
system.cpu.dcache.overall_mshr_hits::.cpu.data           57                       # number of overall MSHR hits
system.cpu.dcache.overall_mshr_hits::total           57                       # number of overall MSHR hits
system.cpu.dcache.demand_mshr_misses::.cpu.data          199                       # number of demand (read+write) MSHR misses
system.cpu.dcache.demand_mshr_misses::total          199                       # number of demand (read+write) MSHR misses
system.cpu.dcache.overall_mshr_misses::.cpu.data          218                       # number of overall MSHR misses
system.cpu.dcache.overall_mshr_misses::total          218                       # number of overall MSHR misses
system.cpu.dcache.demand_mshr_miss_latency::.cpu.data     16056000                       # number of demand (read+write) MSHR miss cycles
system.cpu.dcache.demand_mshr_miss_latency::total     16056000                       # number of demand (read+write) MSHR miss cycles
system.cpu.dcache.overall_mshr_miss_latency::.cpu.data     17597500                       # number of overall MSHR miss cycles
system.cpu.dcache.overall_mshr_miss_latency::total     17597500                       # number of overall MSHR miss cycles
system.cpu.dcache.demand_mshr_miss_rate::.cpu.data     0.037526                       # mshr miss rate for demand accesses
system.cpu.dcache.demand_mshr_miss_rate::total     0.037526                       # mshr miss rate for demand accesses
system.cpu.dcache.overall_mshr_miss_rate::.cpu.data     0.040528                       # mshr miss rate for overall accesses
system.cpu.dcache.overall_mshr_miss_rate::total     0.040528                       # mshr miss rate for overall accesses
system.cpu.dcache.demand_avg_mshr_miss_latency::.cpu.data 80683.417085                       # average overall mshr miss latency
system.cpu.dcache.demand_avg_mshr_miss_latency::total 80683.417085                       # average overall mshr miss latency
system.cpu.dcache.overall_avg_mshr_miss_latency::.cpu.data 80722.477064                       # average overall mshr miss latency
system.cpu.dcache.overall_avg_mshr_miss_latency::total 80722.477064                       # average overall mshr miss latency
system.cpu.dcache.replacements                      2                       # number of replacements
system.cpu.dcache.ReadReq_hits::.cpu.data         3142                       # number of ReadReq hits
system.cpu.dcache.ReadReq_hits::total            3142                       # number of ReadReq hits
system.cpu.dcache.ReadReq_misses::.cpu.data          128                       # number of ReadReq misses
system.cpu.dcache.ReadReq_misses::total           128                       # number of ReadReq misses
system.cpu.dcache.ReadReq_miss_latency::.cpu.data     10483500                       # number of ReadReq miss cycles
system.cpu.dcache.ReadReq_miss_latency::total     10483500                       # number of ReadReq miss cycles
system.cpu.dcache.ReadReq_accesses::.cpu.data         3270                       # number of ReadReq accesses(hits+misses)
system.cpu.dcache.ReadReq_accesses::total         3270                       # number of ReadReq accesses(hits+misses)
system.cpu.dcache.ReadReq_miss_rate::.cpu.data     0.039144                       # miss rate for ReadReq accesses
system.cpu.dcache.ReadReq_miss_rate::total     0.039144                       # miss rate for ReadReq accesses
system.cpu.dcache.ReadReq_avg_miss_latency::.cpu.data 81902.343750                       # average ReadReq miss latency
system.cpu.dcache.ReadReq_avg_miss_latency::total 81902.343750                       # average ReadReq miss latency
system.cpu.dcache.ReadReq_mshr_hits::.cpu.data            7                       # number of ReadReq MSHR hits
system.cpu.dcache.ReadReq_mshr_hits::total            7                       # number of ReadReq MSHR hits
system.cpu.dcache.ReadReq_mshr_misses::.cpu.data          121                       # number of ReadReq MSHR misses
system.cpu.dcache.ReadReq_mshr_misses::total          121                       # number of ReadReq MSHR misses
system.cpu.dcache.ReadReq_mshr_miss_latency::.cpu.data      9834000                       # number of ReadReq MSHR miss cycles
system.cpu.dcache.ReadReq_mshr_miss_latency::total      9834000                       # number of ReadReq MSHR miss cycles
system.cpu.dcache.ReadReq_mshr_miss_rate::.cpu.data     0.037003                       # mshr miss rate for ReadReq accesses
system.cpu.dcache.ReadReq_mshr_miss_rate::total     0.037003                       # mshr miss rate for ReadReq accesses
system.cpu.dcache.ReadReq_avg_mshr_miss_latency::.cpu.data 81272.727273                       # average ReadReq mshr miss latency
system.cpu.dcache.ReadReq_avg_mshr_miss_latency::total 81272.727273                       # average ReadReq mshr miss latency
system.cpu.dcache.WriteReq_hits::.cpu.data         1905                       # number of WriteReq hits
system.cpu.dcache.WriteReq_hits::total           1905                       # number of WriteReq hits
system.cpu.dcache.WriteReq_misses::.cpu.data          128                       # number of WriteReq misses
system.cpu.dcache.WriteReq_misses::total          128                       # number of WriteReq misses
system.cpu.dcache.WriteReq_miss_latency::.cpu.data      9992500                       # number of WriteReq miss cycles
system.cpu.dcache.WriteReq_miss_latency::total      9992500                       # number of WriteReq miss cycles
system.cpu.dcache.WriteReq_accesses::.cpu.data         2033                       # number of WriteReq accesses(hits+misses)
system.cpu.dcache.WriteReq_accesses::total         2033                       # number of WriteReq accesses(hits+misses)
system.cpu.dcache.WriteReq_miss_rate::.cpu.data     0.062961                       # miss rate for WriteReq accesses
system.cpu.dcache.WriteReq_miss_rate::total     0.062961                       # miss rate for WriteReq accesses
system.cpu.dcache.WriteReq_avg_miss_latency::.cpu.data 78066.406250                       # average WriteReq miss latency
system.cpu.dcache.WriteReq_avg_miss_latency::total 78066.406250                       # average WriteReq miss latency
system.cpu.dcache.WriteReq_mshr_hits::.cpu.data           50                       # number of WriteReq MSHR hits
system.cpu.dcache.WriteReq_mshr_hits::total           50                       # number of WriteReq MSHR hits
system.cpu.dcache.WriteReq_mshr_misses::.cpu.data           78                       # number of WriteReq MSHR misses
system.cpu.dcache.WriteReq_mshr_misses::total           78                       # number of WriteReq MSHR misses
system.cpu.dcache.WriteReq_mshr_miss_latency::.cpu.data      6222000                       # number of WriteReq MSHR miss cycles
system.cpu.dcache.WriteReq_mshr_miss_latency::total      6222000                       # number of WriteReq MSHR miss cycles
system.cpu.dcache.WriteReq_mshr_miss_rate::.cpu.data     0.038367                       # mshr miss rate for WriteReq accesses
system.cpu.dcache.WriteReq_mshr_miss_rate::total     0.038367                       # mshr miss rate for WriteReq accesses
system.cpu.dcache.WriteReq_avg_mshr_miss_latency::.cpu.data 79769.230769                       # average WriteReq mshr miss latency
system.cpu.dcache.WriteReq_avg_mshr_miss_latency::total 79769.230769                       # average WriteReq mshr miss latency
system.cpu.dcache.SoftPFReq_hits::.cpu.data           51                       # number of SoftPFReq hits
system.cpu.dcache.SoftPFReq_hits::total            51                       # number of SoftPFReq hits
system.cpu.dcache.SoftPFReq_misses::.cpu.data           25                       # number of SoftPFReq misses
system.cpu.dcache.SoftPFReq_misses::total           25                       # number of SoftPFReq misses
system.cpu.dcache.SoftPFReq_accesses::.cpu.data           76                       # number of SoftPFReq accesses(hits+misses)
system.cpu.dcache.SoftPFReq_accesses::total           76                       # number of SoftPFReq accesses(hits+misses)
system.cpu.dcache.SoftPFReq_miss_rate::.cpu.data     0.328947                       # miss rate for SoftPFReq accesses
system.cpu.dcache.SoftPFReq_miss_rate::total     0.328947                       # miss rate for SoftPFReq accesses
system.cpu.dcache.SoftPFReq_mshr_misses::.cpu.data           19                       # number of SoftPFReq MSHR misses
system.cpu.dcache.SoftPFReq_mshr_misses::total           19                       # number of SoftPFReq MSHR misses
system.cpu.dcache.SoftPFReq_mshr_miss_latency::.cpu.data      1541500                       # number of SoftPFReq MSHR miss cycles
system.cpu.dcache.SoftPFReq_mshr_miss_latency::total      1541500                       # number of SoftPFReq MSHR miss cycles
system.cpu.dcache.SoftPFReq_mshr_miss_rate::.cpu.data     0.250000                       # mshr miss rate for SoftPFReq accesses
system.cpu.dcache.SoftPFReq_mshr_miss_rate::total     0.250000                       # mshr miss rate for SoftPFReq accesses
system.cpu.dcache.SoftPFReq_avg_mshr_miss_latency::.cpu.data 81131.578947                       # average SoftPFReq mshr miss latency
system.cpu.dcache.SoftPFReq_avg_mshr_miss_latency::total 81131.578947                       # average SoftPFReq mshr miss latency
system.cpu.dcache.LoadLockedReq_hits::.cpu.data           19                       # number of LoadLockedReq hits
system.cpu.dcache.LoadLockedReq_hits::total           19                       # number of LoadLockedReq hits
system.cpu.dcache.LoadLockedReq_misses::.cpu.data            1                       # number of LoadLockedReq misses
system.cpu.dcache.LoadLockedReq_misses::total            1                       # number of LoadLockedReq misses
system.cpu.dcache.LoadLockedReq_miss_latency::.cpu.data        72000                       # number of LoadLockedReq miss cycles
system.cpu.dcache.LoadLockedReq_miss_latency::total        72000                       # number of LoadLockedReq miss cycles
system.cpu.dcache.LoadLockedReq_accesses::.cpu.data           20                       # number of LoadLockedReq accesses(hits+misses)
system.cpu.dcache.LoadLockedReq_accesses::total           20                       # number of LoadLockedReq accesses(hits+misses)
system.cpu.dcache.LoadLockedReq_miss_rate::.cpu.data     0.050000                       # miss rate for LoadLockedReq accesses
system.cpu.dcache.LoadLockedReq_miss_rate::total     0.050000                       # miss rate for LoadLockedReq accesses
system.cpu.dcache.LoadLockedReq_avg_miss_latency::.cpu.data        72000                       # average LoadLockedReq miss latency
system.cpu.dcache.LoadLockedReq_avg_miss_latency::total        72000                       # average LoadLockedReq miss latency
system.cpu.dcache.LoadLockedReq_mshr_misses::.cpu.data            1                       # number of LoadLockedReq MSHR misses
system.cpu.dcache.LoadLockedReq_mshr_misses::total            1                       # number of LoadLockedReq MSHR misses
system.cpu.dcache.LoadLockedReq_mshr_miss_latency::.cpu.data        71000                       # number of LoadLockedReq MSHR miss cycles
system.cpu.dcache.LoadLockedReq_mshr_miss_latency::total        71000                       # number of LoadLockedReq MSHR miss cycles
system.cpu.dcache.LoadLockedReq_mshr_miss_rate::.cpu.data     0.050000                       # mshr miss rate for LoadLockedReq accesses
system.cpu.dcache.LoadLockedReq_mshr_miss_rate::total     0.050000                       # mshr miss rate for LoadLockedReq accesses
system.cpu.dcache.LoadLockedReq_avg_mshr_miss_latency::.cpu.data        71000                       # average LoadLockedReq mshr miss latency
system.cpu.dcache.LoadLockedReq_avg_mshr_miss_latency::total        71000                       # average LoadLockedReq mshr miss latency
system.cpu.dcache.StoreCondReq_hits::.cpu.data           20                       # number of StoreCondReq hits
system.cpu.dcache.StoreCondReq_hits::total           20                       # number of StoreCondReq hits
system.cpu.dcache.StoreCondReq_accesses::.cpu.data           20                       # number of StoreCondReq accesses(hits+misses)
system.cpu.dcache.StoreCondReq_accesses::total           20                       # number of StoreCondReq accesses(hits+misses)
system.cpu.dcache.power_state.pwrStateResidencyTicks::UNDEFINED     60140500                       # Cumulative time (in ticks) in various power states
system.cpu.dcache.tags.tagsinuse           125.567306                       # Cycle average of tags in use
system.cpu.dcache.tags.total_refs                5356                       # Total number of references to valid blocks.
system.cpu.dcache.tags.sampled_refs               219                       # Sample count of references to valid blocks.
system.cpu.dcache.tags.avg_refs             24.456621                       # Average number of references to valid blocks.
system.cpu.dcache.tags.warmup_cycle            176500                       # Cycle when the warmup percentage was hit.
system.cpu.dcache.tags.occ_blocks::.cpu.data   125.567306                       # Average occupied blocks per requestor
system.cpu.dcache.tags.occ_percent::.cpu.data     0.122624                       # Average percentage of cache occupancy
system.cpu.dcache.tags.occ_percent::total     0.122624                       # Average percentage of cache occupancy
system.cpu.dcache.tags.occ_task_id_blocks::1024          217                       # Occupied blocks per task id
system.cpu.dcache.tags.age_task_id_blocks_1024::0           36                       # Occupied blocks per task id
system.cpu.dcache.tags.age_task_id_blocks_1024::1          181                       # Occupied blocks per task id
system.cpu.dcache.tags.occ_task_id_percent::1024     0.211914                       # Percentage of cache occupancy per task id
system.cpu.dcache.tags.tag_accesses             11057                       # Number of tag accesses
system.cpu.dcache.tags.data_accesses            11057                       # Number of data accesses
system.cpu.dcache.tags.power_state.pwrStateResidencyTicks::UNDEFINED     60140500                       # Cumulative time (in ticks) in various power states
system.cpu.dtb.instHits                             0                       # ITB inst hits
system.cpu.dtb.instMisses                           0                       # ITB inst misses
system.cpu.dtb.readHits                             0                       # DTB read hits
system.cpu.dtb.readMisses                           0                       # DTB read misses
system.cpu.dtb.writeHits                            0                       # DTB write hits
system.cpu.dtb.writeMisses                          0                       # DTB write misses
system.cpu.dtb.inserts                              0                       # Number of times an entry is inserted into the TLB
system.cpu.dtb.flushTlb                             0                       # Number of times complete TLB was flushed
system.cpu.dtb.flushTlbMva                          0                       # Number of times TLB was flushed by MVA
system.cpu.dtb.flushTlbMvaAsid                      0                       # Number of times TLB was flushed by MVA & ASID
system.cpu.dtb.flushTlbAsid                         0                       # Number of times TLB was flushed by ASID
system.cpu.dtb.flushedEntries                       0                       # Number of entries that have been flushed from TLB
system.cpu.dtb.alignFaults                          0                       # Number of TLB faults due to alignment restrictions
system.cpu.dtb.prefetchFaults                       0                       # Number of TLB faults due to prefetch
system.cpu.dtb.domainFaults                         0                       # Number of TLB faults due to domain restrictions
system.cpu.dtb.permsFaults                          0                       # Number of TLB faults due to permissions restrictions
system.cpu.dtb.readAccesses                         0                       # DTB read accesses
system.cpu.dtb.writeAccesses                        0                       # DTB write accesses
system.cpu.dtb.instAccesses                         0                       # ITB inst accesses
system.cpu.dtb.hits                                 0                       # Total TLB (inst and data) hits
system.cpu.dtb.misses                               0                       # Total TLB (inst and data) misses
system.cpu.dtb.accesses                             0                       # Total TLB (inst and data) accesses
system.cpu.dtb.stage2_mmu.stage2_tlb.instHits            0                       # ITB inst hits
system.cpu.dtb.stage2_mmu.stage2_tlb.instMisses            0                       # ITB inst misses
system.cpu.dtb.stage2_mmu.stage2_tlb.readHits            0                       # DTB read hits
system.cpu.dtb.stage2_mmu.stage2_tlb.readMisses            0                       # DTB read misses
system.cpu.dtb.stage2_mmu.stage2_tlb.writeHits            0                       # DTB write hits
system.cpu.dtb.stage2_mmu.stage2_tlb.writeMisses            0                       # DTB write misses
system.cpu.dtb.stage2_mmu.stage2_tlb.inserts            0                       # Number of times an entry is inserted into the TLB
system.cpu.dtb.stage2_mmu.stage2_tlb.flushTlb            0                       # Number of times complete TLB was flushed
system.cpu.dtb.stage2_mmu.stage2_tlb.flushTlbMva            0                       # Number of times TLB was flushed by MVA
system.cpu.dtb.stage2_mmu.stage2_tlb.flushTlbMvaAsid            0                       # Number of times TLB was flushed by MVA & ASID
system.cpu.dtb.stage2_mmu.stage2_tlb.flushTlbAsid            0                       # Number of times TLB was flushed by ASID
system.cpu.dtb.stage2_mmu.stage2_tlb.flushedEntries            0                       # Number of entries that have been flushed from TLB
system.cpu.dtb.stage2_mmu.stage2_tlb.alignFaults            0                       # Number of TLB faults due to alignment restrictions
system.cpu.dtb.stage2_mmu.stage2_tlb.prefetchFaults            0                       # Number of TLB faults due to prefetch
system.cpu.dtb.stage2_mmu.stage2_tlb.domainFaults            0                       # Number of TLB faults due to domain restrictions
system.cpu.dtb.stage2_mmu.stage2_tlb.permsFaults            0                       # Number of TLB faults due to permissions restrictions
system.cpu.dtb.stage2_mmu.stage2_tlb.readAccesses            0                       # DTB read accesses
system.cpu.dtb.stage2_mmu.stage2_tlb.writeAccesses            0                       # DTB write accesses
system.cpu.dtb.stage2_mmu.stage2_tlb.instAccesses            0                       # ITB inst accesses
system.cpu.dtb.stage2_mmu.stage2_tlb.hits            0                       # Total TLB (inst and data) hits
system.cpu.dtb.stage2_mmu.stage2_tlb.misses            0                       # Total TLB (inst and data) misses
system.cpu.dtb.stage2_mmu.stage2_tlb.accesses            0                       # Total TLB (inst and data) accesses
system.cpu.dtb.stage2_mmu.stage2_tlb.walker.walks            0                       # Table walker walks requested
system.cpu.dtb.stage2_mmu.stage2_tlb.walker.requestOrigin_Requested::Data            0                       # Table walker requests started/completed, data/inst
system.cpu.dtb.stage2_mmu.stage2_tlb.walker.requestOrigin_Requested::Inst            0                       # Table walker requests started/completed, data/inst
system.cpu.dtb.stage2_mmu.stage2_tlb.walker.requestOrigin_Requested::total            0                       # Table walker requests started/completed, data/inst
system.cpu.dtb.stage2_mmu.stage2_tlb.walker.requestOrigin_Completed::Data            0                       # Table walker requests started/completed, data/inst
system.cpu.dtb.stage2_mmu.stage2_tlb.walker.requestOrigin_Completed::Inst            0                       # Table walker requests started/completed, data/inst
system.cpu.dtb.stage2_mmu.stage2_tlb.walker.requestOrigin_Completed::total            0                       # Table walker requests started/completed, data/inst
system.cpu.dtb.stage2_mmu.stage2_tlb.walker.requestOrigin::total            0                       # Table walker requests started/completed, data/inst
system.cpu.dtb.stage2_mmu.stage2_tlb.walker.power_state.pwrStateResidencyTicks::UNDEFINED     60140500                       # Cumulative time (in ticks) in various power states
system.cpu.dtb.walker.walks                         0                       # Table walker walks requested
system.cpu.dtb.walker.requestOrigin_Requested::Data            0                       # Table walker requests started/completed, data/inst
system.cpu.dtb.walker.requestOrigin_Requested::Inst            0                       # Table walker requests started/completed, data/inst
system.cpu.dtb.walker.requestOrigin_Requested::total            0                       # Table walker requests started/completed, data/inst
system.cpu.dtb.walker.requestOrigin_Completed::Data            0                       # Table walker requests started/completed, data/inst
system.cpu.dtb.walker.requestOrigin_Completed::Inst            0                       # Table walker requests started/completed, data/inst
system.cpu.dtb.walker.requestOrigin_Completed::total            0                       # Table walker requests started/completed, data/inst
system.cpu.dtb.walker.requestOrigin::total            0                       # Table walker requests started/completed, data/inst
system.cpu.dtb.walker.power_state.pwrStateResidencyTicks::UNDEFINED     60140500                       # Cumulative time (in ticks) in various power states
system.cpu.fetch2.intInstructions               15328                       # Number of integer instructions successfully decoded
system.cpu.fetch2.fpInstructions                    0                       # Number of floating point instructions successfully decoded
system.cpu.fetch2.vecInstructions                   0                       # Number of SIMD instructions successfully decoded
system.cpu.fetch2.loadInstructions               4136                       # Number of memory load instructions successfully decoded
system.cpu.fetch2.storeInstructions              1667                       # Number of memory store instructions successfully decoded
system.cpu.fetch2.amoInstructions                   0                       # Number of memory atomic instructions successfully decoded
system.cpu.icache.demand_hits::.cpu.inst         5338                       # number of demand (read+write) hits
system.cpu.icache.demand_hits::total             5338                       # number of demand (read+write) hits
system.cpu.icache.overall_hits::.cpu.inst         5338                       # number of overall hits
system.cpu.icache.overall_hits::total            5338                       # number of overall hits
system.cpu.icache.demand_misses::.cpu.inst          570                       # number of demand (read+write) misses
system.cpu.icache.demand_misses::total            570                       # number of demand (read+write) misses
system.cpu.icache.overall_misses::.cpu.inst          570                       # number of overall misses
system.cpu.icache.overall_misses::total           570                       # number of overall misses
system.cpu.icache.demand_miss_latency::.cpu.inst     42501000                       # number of demand (read+write) miss cycles
system.cpu.icache.demand_miss_latency::total     42501000                       # number of demand (read+write) miss cycles
system.cpu.icache.overall_miss_latency::.cpu.inst     42501000                       # number of overall miss cycles
system.cpu.icache.overall_miss_latency::total     42501000                       # number of overall miss cycles
system.cpu.icache.demand_accesses::.cpu.inst         5908                       # number of demand (read+write) accesses
system.cpu.icache.demand_accesses::total         5908                       # number of demand (read+write) accesses
system.cpu.icache.overall_accesses::.cpu.inst         5908                       # number of overall (read+write) accesses
system.cpu.icache.overall_accesses::total         5908                       # number of overall (read+write) accesses
system.cpu.icache.demand_miss_rate::.cpu.inst     0.096479                       # miss rate for demand accesses
system.cpu.icache.demand_miss_rate::total     0.096479                       # miss rate for demand accesses
system.cpu.icache.overall_miss_rate::.cpu.inst     0.096479                       # miss rate for overall accesses
system.cpu.icache.overall_miss_rate::total     0.096479                       # miss rate for overall accesses
system.cpu.icache.demand_avg_miss_latency::.cpu.inst 74563.157895                       # average overall miss latency
system.cpu.icache.demand_avg_miss_latency::total 74563.157895                       # average overall miss latency
system.cpu.icache.overall_avg_miss_latency::.cpu.inst 74563.157895                       # average overall miss latency
system.cpu.icache.overall_avg_miss_latency::total 74563.157895                       # average overall miss latency
system.cpu.icache.blocked_cycles::no_mshrs            0                       # number of cycles access was blocked
system.cpu.icache.blocked_cycles::no_targets            0                       # number of cycles access was blocked
system.cpu.icache.blocked::no_mshrs                 0                       # number of cycles access was blocked
system.cpu.icache.blocked::no_targets               0                       # number of cycles access was blocked
system.cpu.icache.avg_blocked_cycles::no_mshrs          nan                       # average number of cycles each access was blocked
system.cpu.icache.avg_blocked_cycles::no_targets          nan                       # average number of cycles each access was blocked
system.cpu.icache.writebacks::.writebacks          134                       # number of writebacks
system.cpu.icache.writebacks::total               134                       # number of writebacks
system.cpu.icache.demand_mshr_misses::.cpu.inst          570                       # number of demand (read+write) MSHR misses
system.cpu.icache.demand_mshr_misses::total          570                       # number of demand (read+write) MSHR misses
system.cpu.icache.overall_mshr_misses::.cpu.inst          570                       # number of overall MSHR misses
system.cpu.icache.overall_mshr_misses::total          570                       # number of overall MSHR misses
system.cpu.icache.demand_mshr_miss_latency::.cpu.inst     41931000                       # number of demand (read+write) MSHR miss cycles
system.cpu.icache.demand_mshr_miss_latency::total     41931000                       # number of demand (read+write) MSHR miss cycles
system.cpu.icache.overall_mshr_miss_latency::.cpu.inst     41931000                       # number of overall MSHR miss cycles
system.cpu.icache.overall_mshr_miss_latency::total     41931000                       # number of overall MSHR miss cycles
system.cpu.icache.demand_mshr_miss_rate::.cpu.inst     0.096479                       # mshr miss rate for demand accesses
system.cpu.icache.demand_mshr_miss_rate::total     0.096479                       # mshr miss rate for demand accesses
system.cpu.icache.overall_mshr_miss_rate::.cpu.inst     0.096479                       # mshr miss rate for overall accesses
system.cpu.icache.overall_mshr_miss_rate::total     0.096479                       # mshr miss rate for overall accesses
system.cpu.icache.demand_avg_mshr_miss_latency::.cpu.inst 73563.157895                       # average overall mshr miss latency
system.cpu.icache.demand_avg_mshr_miss_latency::total 73563.157895                       # average overall mshr miss latency
system.cpu.icache.overall_avg_mshr_miss_latency::.cpu.inst 73563.157895                       # average overall mshr miss latency
system.cpu.icache.overall_avg_mshr_miss_latency::total 73563.157895                       # average overall mshr miss latency
system.cpu.icache.replacements                    134                       # number of replacements
system.cpu.icache.ReadReq_hits::.cpu.inst         5338                       # number of ReadReq hits
system.cpu.icache.ReadReq_hits::total            5338                       # number of ReadReq hits
system.cpu.icache.ReadReq_misses::.cpu.inst          570                       # number of ReadReq misses
system.cpu.icache.ReadReq_misses::total           570                       # number of ReadReq misses
system.cpu.icache.ReadReq_miss_latency::.cpu.inst     42501000                       # number of ReadReq miss cycles
system.cpu.icache.ReadReq_miss_latency::total     42501000                       # number of ReadReq miss cycles
system.cpu.icache.ReadReq_accesses::.cpu.inst         5908                       # number of ReadReq accesses(hits+misses)
system.cpu.icache.ReadReq_accesses::total         5908                       # number of ReadReq accesses(hits+misses)
system.cpu.icache.ReadReq_miss_rate::.cpu.inst     0.096479                       # miss rate for ReadReq accesses
system.cpu.icache.ReadReq_miss_rate::total     0.096479                       # miss rate for ReadReq accesses
system.cpu.icache.ReadReq_avg_miss_latency::.cpu.inst 74563.157895                       # average ReadReq miss latency
system.cpu.icache.ReadReq_avg_miss_latency::total 74563.157895                       # average ReadReq miss latency
system.cpu.icache.ReadReq_mshr_misses::.cpu.inst          570                       # number of ReadReq MSHR misses
system.cpu.icache.ReadReq_mshr_misses::total          570                       # number of ReadReq MSHR misses
system.cpu.icache.ReadReq_mshr_miss_latency::.cpu.inst     41931000                       # number of ReadReq MSHR miss cycles
system.cpu.icache.ReadReq_mshr_miss_latency::total     41931000                       # number of ReadReq MSHR miss cycles
system.cpu.icache.ReadReq_mshr_miss_rate::.cpu.inst     0.096479                       # mshr miss rate for ReadReq accesses
system.cpu.icache.ReadReq_mshr_miss_rate::total     0.096479                       # mshr miss rate for ReadReq accesses
system.cpu.icache.ReadReq_avg_mshr_miss_latency::.cpu.inst 73563.157895                       # average ReadReq mshr miss latency
system.cpu.icache.ReadReq_avg_mshr_miss_latency::total 73563.157895                       # average ReadReq mshr miss latency
system.cpu.icache.power_state.pwrStateResidencyTicks::UNDEFINED     60140500                       # Cumulative time (in ticks) in various power states
system.cpu.icache.tags.tagsinuse           252.264567                       # Cycle average of tags in use
system.cpu.icache.tags.total_refs                5908                       # Total number of references to valid blocks.
system.cpu.icache.tags.sampled_refs               570                       # Sample count of references to valid blocks.
system.cpu.icache.tags.avg_refs             10.364912                       # Average number of references to valid blocks.
system.cpu.icache.tags.warmup_cycle             87500                       # Cycle when the warmup percentage was hit.
system.cpu.icache.tags.occ_blocks::.cpu.inst   252.264567                       # Average occupied blocks per requestor
system.cpu.icache.tags.occ_percent::.cpu.inst     0.492704                       # Average percentage of cache occupancy
system.cpu.icache.tags.occ_percent::total     0.492704                       # Average percentage of cache occupancy
system.cpu.icache.tags.occ_task_id_blocks::1024          436                       # Occupied blocks per task id
system.cpu.icache.tags.age_task_id_blocks_1024::0          102                       # Occupied blocks per task id
system.cpu.icache.tags.age_task_id_blocks_1024::1          334                       # Occupied blocks per task id
system.cpu.icache.tags.occ_task_id_percent::1024     0.851562                       # Percentage of cache occupancy per task id
system.cpu.icache.tags.tag_accesses             12386                       # Number of tag accesses
system.cpu.icache.tags.data_accesses            12386                       # Number of data accesses
system.cpu.icache.tags.power_state.pwrStateResidencyTicks::UNDEFINED     60140500                       # Cumulative time (in ticks) in various power states
system.cpu.itb.instHits                             0                       # ITB inst hits
system.cpu.itb.instMisses                           0                       # ITB inst misses
system.cpu.itb.readHits                             0                       # DTB read hits
system.cpu.itb.readMisses                           0                       # DTB read misses
system.cpu.itb.writeHits                            0                       # DTB write hits
system.cpu.itb.writeMisses                          0                       # DTB write misses
system.cpu.itb.inserts                              0                       # Number of times an entry is inserted into the TLB
system.cpu.itb.flushTlb                             0                       # Number of times complete TLB was flushed
system.cpu.itb.flushTlbMva                          0                       # Number of times TLB was flushed by MVA
system.cpu.itb.flushTlbMvaAsid                      0                       # Number of times TLB was flushed by MVA & ASID
system.cpu.itb.flushTlbAsid                         0                       # Number of times TLB was flushed by ASID
system.cpu.itb.flushedEntries                       0                       # Number of entries that have been flushed from TLB
system.cpu.itb.alignFaults                          0                       # Number of TLB faults due to alignment restrictions
system.cpu.itb.prefetchFaults                       0                       # Number of TLB faults due to prefetch
system.cpu.itb.domainFaults                         0                       # Number of TLB faults due to domain restrictions
system.cpu.itb.permsFaults                          0                       # Number of TLB faults due to permissions restrictions
system.cpu.itb.readAccesses                         0                       # DTB read accesses
system.cpu.itb.writeAccesses                        0                       # DTB write accesses
system.cpu.itb.instAccesses                         0                       # ITB inst accesses
system.cpu.itb.hits                                 0                       # Total TLB (inst and data) hits
system.cpu.itb.misses                               0                       # Total TLB (inst and data) misses
system.cpu.itb.accesses                             0                       # Total TLB (inst and data) accesses
system.cpu.itb.stage2_mmu.stage2_tlb.instHits            0                       # ITB inst hits
system.cpu.itb.stage2_mmu.stage2_tlb.instMisses            0                       # ITB inst misses
system.cpu.itb.stage2_mmu.stage2_tlb.readHits            0                       # DTB read hits
system.cpu.itb.stage2_mmu.stage2_tlb.readMisses            0                       # DTB read misses
system.cpu.itb.stage2_mmu.stage2_tlb.writeHits            0                       # DTB write hits
system.cpu.itb.stage2_mmu.stage2_tlb.writeMisses            0                       # DTB write misses
system.cpu.itb.stage2_mmu.stage2_tlb.inserts            0                       # Number of times an entry is inserted into the TLB
system.cpu.itb.stage2_mmu.stage2_tlb.flushTlb            0                       # Number of times complete TLB was flushed
system.cpu.itb.stage2_mmu.stage2_tlb.flushTlbMva            0                       # Number of times TLB was flushed by MVA
system.cpu.itb.stage2_mmu.stage2_tlb.flushTlbMvaAsid            0                       # Number of times TLB was flushed by MVA & ASID
system.cpu.itb.stage2_mmu.stage2_tlb.flushTlbAsid            0                       # Number of times TLB was flushed by ASID
system.cpu.itb.stage2_mmu.stage2_tlb.flushedEntries            0                       # Number of entries that have been flushed from TLB
system.cpu.itb.stage2_mmu.stage2_tlb.alignFaults            0                       # Number of TLB faults due to alignment restrictions
system.cpu.itb.stage2_mmu.stage2_tlb.prefetchFaults            0                       # Number of TLB faults due to prefetch
system.cpu.itb.stage2_mmu.stage2_tlb.domainFaults            0                       # Number of TLB faults due to domain restrictions
system.cpu.itb.stage2_mmu.stage2_tlb.permsFaults            0                       # Number of TLB faults due to permissions restrictions
system.cpu.itb.stage2_mmu.stage2_tlb.readAccesses            0                       # DTB read accesses
system.cpu.itb.stage2_mmu.stage2_tlb.writeAccesses            0                       # DTB write accesses
system.cpu.itb.stage2_mmu.stage2_tlb.instAccesses            0                       # ITB inst accesses
system.cpu.itb.stage2_mmu.stage2_tlb.hits            0                       # Total TLB (inst and data) hits
system.cpu.itb.stage2_mmu.stage2_tlb.misses            0                       # Total TLB (inst and data) misses
system.cpu.itb.stage2_mmu.stage2_tlb.accesses            0                       # Total TLB (inst and data) accesses
system.cpu.itb.stage2_mmu.stage2_tlb.walker.walks            0                       # Table walker walks requested
system.cpu.itb.stage2_mmu.stage2_tlb.walker.requestOrigin_Requested::Data            0                       # Table walker requests started/completed, data/inst
system.cpu.itb.stage2_mmu.stage2_tlb.walker.requestOrigin_Requested::Inst            0                       # Table walker requests started/completed, data/inst
system.cpu.itb.stage2_mmu.stage2_tlb.walker.requestOrigin_Requested::total            0                       # Table walker requests started/completed, data/inst
system.cpu.itb.stage2_mmu.stage2_tlb.walker.requestOrigin_Completed::Data            0                       # Table walker requests started/completed, data/inst
system.cpu.itb.stage2_mmu.stage2_tlb.walker.requestOrigin_Completed::Inst            0                       # Table walker requests started/completed, data/inst
system.cpu.itb.stage2_mmu.stage2_tlb.walker.requestOrigin_Completed::total            0                       # Table walker requests started/completed, data/inst
system.cpu.itb.stage2_mmu.stage2_tlb.walker.requestOrigin::total            0                       # Table walker requests started/completed, data/inst
system.cpu.itb.stage2_mmu.stage2_tlb.walker.power_state.pwrStateResidencyTicks::UNDEFINED     60140500                       # Cumulative time (in ticks) in various power states
system.cpu.itb.walker.walks                         0                       # Table walker walks requested
system.cpu.itb.walker.requestOrigin_Requested::Data            0                       # Table walker requests started/completed, data/inst
system.cpu.itb.walker.requestOrigin_Requested::Inst            0                       # Table walker requests started/completed, data/inst
system.cpu.itb.walker.requestOrigin_Requested::total            0                       # Table walker requests started/completed, data/inst
system.cpu.itb.walker.requestOrigin_Completed::Data            0                       # Table walker requests started/completed, data/inst
system.cpu.itb.walker.requestOrigin_Completed::Inst            0                       # Table walker requests started/completed, data/inst
system.cpu.itb.walker.requestOrigin_Completed::total            0                       # Table walker requests started/completed, data/inst
system.cpu.itb.walker.requestOrigin::total            0                       # Table walker requests started/completed, data/inst
system.cpu.itb.walker.power_state.pwrStateResidencyTicks::UNDEFINED     60140500                       # Cumulative time (in ticks) in various power states
system.cpu.power_state.pwrStateResidencyTicks::ON     60140500                       # Cumulative time (in ticks) in various power states
system.cpu.thread_0.numInsts                    15426                       # Number of Instructions committed
system.cpu.thread_0.numOps                      17266                       # Number of Ops committed
system.cpu.thread_0.numMemRefs                      0                       # Number of Memory References
system.cpu_clk_domain.clock                       500                       # Clock period in ticks
system.cpu_voltage_domain.voltage                   1                       # Voltage in Volts
system.l2.demand_hits::.cpu.inst                   34                       # number of demand (read+write) hits
system.l2.demand_hits::.cpu.data                   11                       # number of demand (read+write) hits
system.l2.demand_hits::total                       45                       # number of demand (read+write) hits
system.l2.overall_hits::.cpu.inst                  34                       # number of overall hits
system.l2.overall_hits::.cpu.data                  11                       # number of overall hits
system.l2.overall_hits::total                      45                       # number of overall hits
system.l2.demand_misses::.cpu.inst                536                       # number of demand (read+write) misses
system.l2.demand_misses::.cpu.data                208                       # number of demand (read+write) misses
system.l2.demand_misses::total                    744                       # number of demand (read+write) misses
system.l2.overall_misses::.cpu.inst               536                       # number of overall misses
system.l2.overall_misses::.cpu.data               208                       # number of overall misses
system.l2.overall_misses::total                   744                       # number of overall misses
system.l2.demand_miss_latency::.cpu.inst     40705500                       # number of demand (read+write) miss cycles
system.l2.demand_miss_latency::.cpu.data     17209500                       # number of demand (read+write) miss cycles
system.l2.demand_miss_latency::total         57915000                       # number of demand (read+write) miss cycles
system.l2.overall_miss_latency::.cpu.inst     40705500                       # number of overall miss cycles
system.l2.overall_miss_latency::.cpu.data     17209500                       # number of overall miss cycles
system.l2.overall_miss_latency::total        57915000                       # number of overall miss cycles
system.l2.demand_accesses::.cpu.inst              570                       # number of demand (read+write) accesses
system.l2.demand_accesses::.cpu.data              219                       # number of demand (read+write) accesses
system.l2.demand_accesses::total                  789                       # number of demand (read+write) accesses
system.l2.overall_accesses::.cpu.inst             570                       # number of overall (read+write) accesses
system.l2.overall_accesses::.cpu.data             219                       # number of overall (read+write) accesses
system.l2.overall_accesses::total                 789                       # number of overall (read+write) accesses
system.l2.demand_miss_rate::.cpu.inst        0.940351                       # miss rate for demand accesses
system.l2.demand_miss_rate::.cpu.data        0.949772                       # miss rate for demand accesses
system.l2.demand_miss_rate::total            0.942966                       # miss rate for demand accesses
system.l2.overall_miss_rate::.cpu.inst       0.940351                       # miss rate for overall accesses
system.l2.overall_miss_rate::.cpu.data       0.949772                       # miss rate for overall accesses
system.l2.overall_miss_rate::total           0.942966                       # miss rate for overall accesses
system.l2.demand_avg_miss_latency::.cpu.inst 75943.097015                       # average overall miss latency
system.l2.demand_avg_miss_latency::.cpu.data 82737.980769                       # average overall miss latency
system.l2.demand_avg_miss_latency::total 77842.741935                       # average overall miss latency
system.l2.overall_avg_miss_latency::.cpu.inst 75943.097015                       # average overall miss latency
system.l2.overall_avg_miss_latency::.cpu.data 82737.980769                       # average overall miss latency
system.l2.overall_avg_miss_latency::total 77842.741935                       # average overall miss latency
system.l2.blocked_cycles::no_mshrs                  0                       # number of cycles access was blocked
system.l2.blocked_cycles::no_targets                0                       # number of cycles access was blocked
system.l2.blocked::no_mshrs                         0                       # number of cycles access was blocked
system.l2.blocked::no_targets                       0                       # number of cycles access was blocked
system.l2.avg_blocked_cycles::no_mshrs            nan                       # average number of cycles each access was blocked
system.l2.avg_blocked_cycles::no_targets          nan                       # average number of cycles each access was blocked
system.l2.demand_mshr_hits::.cpu.inst               1                       # number of demand (read+write) MSHR hits
system.l2.demand_mshr_hits::.cpu.data               5                       # number of demand (read+write) MSHR hits
system.l2.demand_mshr_hits::total                   6                       # number of demand (read+write) MSHR hits
system.l2.overall_mshr_hits::.cpu.inst              1                       # number of overall MSHR hits
system.l2.overall_mshr_hits::.cpu.data              5                       # number of overall MSHR hits
system.l2.overall_mshr_hits::total                  6                       # number of overall MSHR hits
system.l2.demand_mshr_misses::.cpu.inst           535                       # number of demand (read+write) MSHR misses
system.l2.demand_mshr_misses::.cpu.data           203                       # number of demand (read+write) MSHR misses
system.l2.demand_mshr_misses::total               738                       # number of demand (read+write) MSHR misses
system.l2.overall_mshr_misses::.cpu.inst          535                       # number of overall MSHR misses
system.l2.overall_mshr_misses::.cpu.data          203                       # number of overall MSHR misses
system.l2.overall_mshr_misses::total              738                       # number of overall MSHR misses
system.l2.demand_mshr_miss_latency::.cpu.inst     35289000                       # number of demand (read+write) MSHR miss cycles
system.l2.demand_mshr_miss_latency::.cpu.data     14854500                       # number of demand (read+write) MSHR miss cycles
system.l2.demand_mshr_miss_latency::total     50143500                       # number of demand (read+write) MSHR miss cycles
system.l2.overall_mshr_miss_latency::.cpu.inst     35289000                       # number of overall MSHR miss cycles
system.l2.overall_mshr_miss_latency::.cpu.data     14854500                       # number of overall MSHR miss cycles
system.l2.overall_mshr_miss_latency::total     50143500                       # number of overall MSHR miss cycles
system.l2.demand_mshr_miss_rate::.cpu.inst     0.938596                       # mshr miss rate for demand accesses
system.l2.demand_mshr_miss_rate::.cpu.data     0.926941                       # mshr miss rate for demand accesses
system.l2.demand_mshr_miss_rate::total       0.935361                       # mshr miss rate for demand accesses
system.l2.overall_mshr_miss_rate::.cpu.inst     0.938596                       # mshr miss rate for overall accesses
system.l2.overall_mshr_miss_rate::.cpu.data     0.926941                       # mshr miss rate for overall accesses
system.l2.overall_mshr_miss_rate::total      0.935361                       # mshr miss rate for overall accesses
system.l2.demand_avg_mshr_miss_latency::.cpu.inst 65960.747664                       # average overall mshr miss latency
system.l2.demand_avg_mshr_miss_latency::.cpu.data 73174.876847                       # average overall mshr miss latency
system.l2.demand_avg_mshr_miss_latency::total 67945.121951                       # average overall mshr miss latency
system.l2.overall_avg_mshr_miss_latency::.cpu.inst 65960.747664                       # average overall mshr miss latency
system.l2.overall_avg_mshr_miss_latency::.cpu.data 73174.876847                       # average overall mshr miss latency
system.l2.overall_avg_mshr_miss_latency::total 67945.121951                       # average overall mshr miss latency
system.l2.replacements                              0                       # number of replacements
system.l2.WritebackClean_hits::.writebacks          125                       # number of WritebackClean hits
system.l2.WritebackClean_hits::total              125                       # number of WritebackClean hits
system.l2.WritebackClean_accesses::.writebacks          125                       # number of WritebackClean accesses(hits+misses)
system.l2.WritebackClean_accesses::total          125                       # number of WritebackClean accesses(hits+misses)
system.l2.ReadExReq_misses::.cpu.data              78                       # number of ReadExReq misses
system.l2.ReadExReq_misses::total                  78                       # number of ReadExReq misses
system.l2.ReadExReq_miss_latency::.cpu.data      6104500                       # number of ReadExReq miss cycles
system.l2.ReadExReq_miss_latency::total       6104500                       # number of ReadExReq miss cycles
system.l2.ReadExReq_accesses::.cpu.data            78                       # number of ReadExReq accesses(hits+misses)
system.l2.ReadExReq_accesses::total                78                       # number of ReadExReq accesses(hits+misses)
system.l2.ReadExReq_miss_rate::.cpu.data            1                       # miss rate for ReadExReq accesses
system.l2.ReadExReq_miss_rate::total                1                       # miss rate for ReadExReq accesses
system.l2.ReadExReq_avg_miss_latency::.cpu.data 78262.820513                       # average ReadExReq miss latency
system.l2.ReadExReq_avg_miss_latency::total 78262.820513                       # average ReadExReq miss latency
system.l2.ReadExReq_mshr_misses::.cpu.data           78                       # number of ReadExReq MSHR misses
system.l2.ReadExReq_mshr_misses::total             78                       # number of ReadExReq MSHR misses
system.l2.ReadExReq_mshr_miss_latency::.cpu.data      5324500                       # number of ReadExReq MSHR miss cycles
system.l2.ReadExReq_mshr_miss_latency::total      5324500                       # number of ReadExReq MSHR miss cycles
system.l2.ReadExReq_mshr_miss_rate::.cpu.data            1                       # mshr miss rate for ReadExReq accesses
system.l2.ReadExReq_mshr_miss_rate::total            1                       # mshr miss rate for ReadExReq accesses
system.l2.ReadExReq_avg_mshr_miss_latency::.cpu.data 68262.820513                       # average ReadExReq mshr miss latency
system.l2.ReadExReq_avg_mshr_miss_latency::total 68262.820513                       # average ReadExReq mshr miss latency
system.l2.ReadCleanReq_hits::.cpu.inst             34                       # number of ReadCleanReq hits
system.l2.ReadCleanReq_hits::total                 34                       # number of ReadCleanReq hits
system.l2.ReadCleanReq_misses::.cpu.inst          536                       # number of ReadCleanReq misses
system.l2.ReadCleanReq_misses::total              536                       # number of ReadCleanReq misses
system.l2.ReadCleanReq_miss_latency::.cpu.inst     40705500                       # number of ReadCleanReq miss cycles
system.l2.ReadCleanReq_miss_latency::total     40705500                       # number of ReadCleanReq miss cycles
system.l2.ReadCleanReq_accesses::.cpu.inst          570                       # number of ReadCleanReq accesses(hits+misses)
system.l2.ReadCleanReq_accesses::total            570                       # number of ReadCleanReq accesses(hits+misses)
system.l2.ReadCleanReq_miss_rate::.cpu.inst     0.940351                       # miss rate for ReadCleanReq accesses
system.l2.ReadCleanReq_miss_rate::total      0.940351                       # miss rate for ReadCleanReq accesses
system.l2.ReadCleanReq_avg_miss_latency::.cpu.inst 75943.097015                       # average ReadCleanReq miss latency
system.l2.ReadCleanReq_avg_miss_latency::total 75943.097015                       # average ReadCleanReq miss latency
system.l2.ReadCleanReq_mshr_hits::.cpu.inst            1                       # number of ReadCleanReq MSHR hits
system.l2.ReadCleanReq_mshr_hits::total             1                       # number of ReadCleanReq MSHR hits
system.l2.ReadCleanReq_mshr_misses::.cpu.inst          535                       # number of ReadCleanReq MSHR misses
system.l2.ReadCleanReq_mshr_misses::total          535                       # number of ReadCleanReq MSHR misses
system.l2.ReadCleanReq_mshr_miss_latency::.cpu.inst     35289000                       # number of ReadCleanReq MSHR miss cycles
system.l2.ReadCleanReq_mshr_miss_latency::total     35289000                       # number of ReadCleanReq MSHR miss cycles
system.l2.ReadCleanReq_mshr_miss_rate::.cpu.inst     0.938596                       # mshr miss rate for ReadCleanReq accesses
system.l2.ReadCleanReq_mshr_miss_rate::total     0.938596                       # mshr miss rate for ReadCleanReq accesses
system.l2.ReadCleanReq_avg_mshr_miss_latency::.cpu.inst 65960.747664                       # average ReadCleanReq mshr miss latency
system.l2.ReadCleanReq_avg_mshr_miss_latency::total 65960.747664                       # average ReadCleanReq mshr miss latency
system.l2.ReadSharedReq_hits::.cpu.data            11                       # number of ReadSharedReq hits
system.l2.ReadSharedReq_hits::total                11                       # number of ReadSharedReq hits
system.l2.ReadSharedReq_misses::.cpu.data          130                       # number of ReadSharedReq misses
system.l2.ReadSharedReq_misses::total             130                       # number of ReadSharedReq misses
system.l2.ReadSharedReq_miss_latency::.cpu.data     11105000                       # number of ReadSharedReq miss cycles
system.l2.ReadSharedReq_miss_latency::total     11105000                       # number of ReadSharedReq miss cycles
system.l2.ReadSharedReq_accesses::.cpu.data          141                       # number of ReadSharedReq accesses(hits+misses)
system.l2.ReadSharedReq_accesses::total           141                       # number of ReadSharedReq accesses(hits+misses)
system.l2.ReadSharedReq_miss_rate::.cpu.data     0.921986                       # miss rate for ReadSharedReq accesses
system.l2.ReadSharedReq_miss_rate::total     0.921986                       # miss rate for ReadSharedReq accesses
system.l2.ReadSharedReq_avg_miss_latency::.cpu.data 85423.076923                       # average ReadSharedReq miss latency
system.l2.ReadSharedReq_avg_miss_latency::total 85423.076923                       # average ReadSharedReq miss latency
system.l2.ReadSharedReq_mshr_hits::.cpu.data            5                       # number of ReadSharedReq MSHR hits
system.l2.ReadSharedReq_mshr_hits::total            5                       # number of ReadSharedReq MSHR hits
system.l2.ReadSharedReq_mshr_misses::.cpu.data          125                       # number of ReadSharedReq MSHR misses
system.l2.ReadSharedReq_mshr_misses::total          125                       # number of ReadSharedReq MSHR misses
system.l2.ReadSharedReq_mshr_miss_latency::.cpu.data      9530000                       # number of ReadSharedReq MSHR miss cycles
system.l2.ReadSharedReq_mshr_miss_latency::total      9530000                       # number of ReadSharedReq MSHR miss cycles
system.l2.ReadSharedReq_mshr_miss_rate::.cpu.data     0.886525                       # mshr miss rate for ReadSharedReq accesses
system.l2.ReadSharedReq_mshr_miss_rate::total     0.886525                       # mshr miss rate for ReadSharedReq accesses
system.l2.ReadSharedReq_avg_mshr_miss_latency::.cpu.data        76240                       # average ReadSharedReq mshr miss latency
system.l2.ReadSharedReq_avg_mshr_miss_latency::total        76240                       # average ReadSharedReq mshr miss latency
system.l2.power_state.pwrStateResidencyTicks::UNDEFINED     60140500                       # Cumulative time (in ticks) in various power states
system.l2.tags.tagsinuse                   388.073284                       # Cycle average of tags in use
system.l2.tags.total_refs                         910                       # Total number of references to valid blocks.
system.l2.tags.sampled_refs                       738                       # Sample count of references to valid blocks.
system.l2.tags.avg_refs                      1.233062                       # Average number of references to valid blocks.
system.l2.tags.warmup_cycle                     77000                       # Cycle when the warmup percentage was hit.
system.l2.tags.occ_blocks::.cpu.inst       271.153794                       # Average occupied blocks per requestor
system.l2.tags.occ_blocks::.cpu.data       116.919490                       # Average occupied blocks per requestor
system.l2.tags.occ_percent::.cpu.inst        0.008275                       # Average percentage of cache occupancy
system.l2.tags.occ_percent::.cpu.data        0.003568                       # Average percentage of cache occupancy
system.l2.tags.occ_percent::total            0.011843                       # Average percentage of cache occupancy
system.l2.tags.occ_task_id_blocks::1024           738                       # Occupied blocks per task id
system.l2.tags.age_task_id_blocks_1024::0          123                       # Occupied blocks per task id
system.l2.tags.age_task_id_blocks_1024::1          615                       # Occupied blocks per task id
system.l2.tags.occ_task_id_percent::1024     0.022522                       # Percentage of cache occupancy per task id
system.l2.tags.tag_accesses                      8066                       # Number of tag accesses
system.l2.tags.data_accesses                     8066                       # Number of data accesses
system.l2.tags.power_state.pwrStateResidencyTicks::UNDEFINED     60140500                       # Cumulative time (in ticks) in various power states
system.mem_ctrls.avgPriority_.cpu.inst::samples       535.00                       # Average QoS priority value for accepted requests
system.mem_ctrls.avgPriority_.cpu.data::samples       203.00                       # Average QoS priority value for accepted requests
system.mem_ctrls.priorityMinLatency      0.000000018750                       # per QoS priority minimum request to response latency (s)
system.mem_ctrls.priorityMaxLatency      0.000000561500                       # per QoS priority maximum request to response latency (s)
system.mem_ctrls.numReadWriteTurnArounds            0                       # Number of turnarounds from READ to WRITE
system.mem_ctrls.numWriteReadTurnArounds            0                       # Number of turnarounds from WRITE to READ
system.mem_ctrls.numStayReadState                1481                       # Number of times bus staying in READ state
system.mem_ctrls.numStayWriteState                  0                       # Number of times bus staying in WRITE state
system.mem_ctrls.readReqs                         738                       # Number of read requests accepted
system.mem_ctrls.writeReqs                          0                       # Number of write requests accepted
system.mem_ctrls.readBursts                       738                       # Number of controller read bursts, including those serviced by the write queue
system.mem_ctrls.writeBursts                        0                       # Number of controller write bursts, including those merged in the write queue
system.mem_ctrls.servicedByWrQ                      0                       # Number of controller read bursts serviced by the write queue
system.mem_ctrls.mergedWrBursts                     0                       # Number of controller write bursts merged with an existing one
system.mem_ctrls.neitherReadNorWriteReqs            0                       # Number of requests that are neither read nor write
system.mem_ctrls.avgRdQLen                       1.16                       # Average read queue length when enqueuing
system.mem_ctrls.avgWrQLen                       0.00                       # Average write queue length when enqueuing
system.mem_ctrls.numRdRetry                         0                       # Number of times read queue was full causing retry
system.mem_ctrls.numWrRetry                         0                       # Number of times write queue was full causing retry
system.mem_ctrls.readPktSize::0                     0                       # Read request sizes (log2)
system.mem_ctrls.readPktSize::1                     0                       # Read request sizes (log2)
system.mem_ctrls.readPktSize::2                     0                       # Read request sizes (log2)
system.mem_ctrls.readPktSize::3                     0                       # Read request sizes (log2)
system.mem_ctrls.readPktSize::4                     0                       # Read request sizes (log2)
system.mem_ctrls.readPktSize::5                     0                       # Read request sizes (log2)
system.mem_ctrls.readPktSize::6                   738                       # Read request sizes (log2)
system.mem_ctrls.writePktSize::0                    0                       # Write request sizes (log2)
system.mem_ctrls.writePktSize::1                    0                       # Write request sizes (log2)
system.mem_ctrls.writePktSize::2                    0                       # Write request sizes (log2)
system.mem_ctrls.writePktSize::3                    0                       # Write request sizes (log2)
system.mem_ctrls.writePktSize::4                    0                       # Write request sizes (log2)
system.mem_ctrls.writePktSize::5                    0                       # Write request sizes (log2)
system.mem_ctrls.writePktSize::6                    0                       # Write request sizes (log2)
system.mem_ctrls.rdQLenPdf::0                     630                       # What read queue length does an incoming req see
system.mem_ctrls.rdQLenPdf::1                      96                       # What read queue length does an incoming req see
system.mem_ctrls.rdQLenPdf::2                      12                       # What read queue length does an incoming req see
system.mem_ctrls.rdQLenPdf::3                       0                       # What read queue length does an incoming req see
system.mem_ctrls.rdQLenPdf::4                       0                       # What read queue length does an incoming req see
system.mem_ctrls.rdQLenPdf::5                       0                       # What read queue length does an incoming req see
system.mem_ctrls.rdQLenPdf::6                       0                       # What read queue length does an incoming req see
[...]
system.mem_ctrls.dram.bw_read::.cpu.inst    569333477                       # Total read bandwidth from this memory (bytes/s)
system.mem_ctrls.dram.bw_read::.cpu.data    216027469                       # Total read bandwidth from this memory (bytes/s)
system.mem_ctrls.dram.bw_read::total        785360946                       # Total read bandwidth from this memory (bytes/s)
system.mem_ctrls.dram.bw_inst_read::.cpu.inst    569333477                       # Instruction read bandwidth from this memory (bytes/s)
system.mem_ctrls.dram.bw_inst_read::total    569333477                       # Instruction read bandwidth from this memory (bytes/s)
system.mem_ctrls.dram.bw_total::.cpu.inst    569333477                       # Total bandwidth to/from this memory (bytes/s)
system.mem_ctrls.dram.bw_total::.cpu.data    216027469                       # Total bandwidth to/from this memory (bytes/s)
system.mem_ctrls.dram.bw_total::total       785360946                       # Total bandwidth to/from this memory (bytes/s)
system.mem_ctrls.dram.readBursts                  738                       # Number of DRAM read bursts
system.mem_ctrls.dram.writeBursts                   0                       # Number of DRAM write bursts
system.mem_ctrls.dram.perBankRdBursts::0           36                       # Per bank write bursts
system.mem_ctrls.dram.perBankRdBursts::1           81                       # Per bank write bursts
system.mem_ctrls.dram.perBankRdBursts::2           66                       # Per bank write bursts
system.mem_ctrls.dram.perBankRdBursts::3           34                       # Per bank write bursts
system.mem_ctrls.dram.perBankRdBursts::4           34                       # Per bank write bursts
system.mem_ctrls.dram.perBankRdBursts::5           56                       # Per bank write bursts
system.mem_ctrls.dram.perBankRdBursts::6           17                       # Per bank write bursts
system.mem_ctrls.dram.perBankRdBursts::7           18                       # Per bank write bursts
system.mem_ctrls.dram.perBankRdBursts::8           34                       # Per bank write bursts
system.mem_ctrls.dram.perBankRdBursts::9           94                       # Per bank write bursts
system.mem_ctrls.dram.perBankRdBursts::10           59                       # Per bank write bursts
system.mem_ctrls.dram.perBankRdBursts::11           78                       # Per bank write bursts
system.mem_ctrls.dram.perBankRdBursts::12           59                       # Per bank write bursts
system.mem_ctrls.dram.perBankRdBursts::13           26                       # Per bank write bursts
system.mem_ctrls.dram.perBankRdBursts::14            6                       # Per bank write bursts
system.mem_ctrls.dram.perBankRdBursts::15           40                       # Per bank write bursts
system.mem_ctrls.dram.perBankWrBursts::0            0                       # Per bank write bursts
system.mem_ctrls.dram.perBankWrBursts::1            0                       # Per bank write bursts
system.mem_ctrls.dram.perBankWrBursts::2            0                       # Per bank write bursts
system.mem_ctrls.dram.perBankWrBursts::3            0                       # Per bank write bursts
system.mem_ctrls.dram.perBankWrBursts::4            0                       # Per bank write bursts
system.mem_ctrls.dram.perBankWrBursts::5            0                       # Per bank write bursts
system.mem_ctrls.dram.perBankWrBursts::6            0                       # Per bank write bursts
system.mem_ctrls.dram.perBankWrBursts::7            0                       # Per bank write bursts
system.mem_ctrls.dram.perBankWrBursts::8            0                       # Per bank write bursts
system.mem_ctrls.dram.perBankWrBursts::9            0                       # Per bank write bursts
system.mem_ctrls.dram.perBankWrBursts::10            0                       # Per bank write bursts
system.mem_ctrls.dram.perBankWrBursts::11            0                       # Per bank write bursts
system.mem_ctrls.dram.perBankWrBursts::12            0                       # Per bank write bursts
system.mem_ctrls.dram.perBankWrBursts::13            0                       # Per bank write bursts
system.mem_ctrls.dram.perBankWrBursts::14            0                       # Per bank write bursts
system.mem_ctrls.dram.perBankWrBursts::15            0                       # Per bank write bursts
system.mem_ctrls.dram.totQLat                 6061000                       # Total ticks spent queuing
system.mem_ctrls.dram.totBusLat               3690000                       # Total ticks spent in databus transfers
system.mem_ctrls.dram.totMemAccLat           19898500                       # Total ticks spent from burst creation until serviced by the DRAM
system.mem_ctrls.dram.avgQLat                 8212.74                       # Average queueing delay per DRAM burst
system.mem_ctrls.dram.avgBusLat               5000.00                       # Average bus latency per DRAM burst
system.mem_ctrls.dram.avgMemAccLat           26962.74                       # Average memory access latency per DRAM burst
system.mem_ctrls.dram.readRowHits                 578                       # Number of row buffer hits during reads
system.mem_ctrls.dram.writeRowHits                  0                       # Number of row buffer hits during writes
system.mem_ctrls.dram.readRowHitRate            78.32                       # Row buffer hit rate for reads
system.mem_ctrls.dram.writeRowHitRate             nan                       # Row buffer hit rate for writes
system.mem_ctrls.dram.bytesPerActivate::samples          151                       # Bytes accessed per row activation
system.mem_ctrls.dram.bytesPerActivate::mean   297.112583                       # Bytes accessed per row activation
system.mem_ctrls.dram.bytesPerActivate::gmean   189.636665                       # Bytes accessed per row activation
system.mem_ctrls.dram.bytesPerActivate::stdev   298.941835                       # Bytes accessed per row activation
system.mem_ctrls.dram.bytesPerActivate::0-127           48     31.79%     31.79% # Bytes accessed per row activation
system.mem_ctrls.dram.bytesPerActivate::128-255           41     27.15%     58.94% # Bytes accessed per row activation
system.mem_ctrls.dram.bytesPerActivate::256-383           23     15.23%     74.17% # Bytes accessed per row activation
system.mem_ctrls.dram.bytesPerActivate::384-511           10      6.62%     80.79% # Bytes accessed per row activation
system.mem_ctrls.dram.bytesPerActivate::512-639            6      3.97%     84.77% # Bytes accessed per row activation
system.mem_ctrls.dram.bytesPerActivate::640-767            4      2.65%     87.42% # Bytes accessed per row activation
system.mem_ctrls.dram.bytesPerActivate::768-895            3      1.99%     89.40% # Bytes accessed per row activation
system.mem_ctrls.dram.bytesPerActivate::896-1023            2      1.32%     90.73% # Bytes accessed per row activation
system.mem_ctrls.dram.bytesPerActivate::1024-1151           14      9.27%    100.00% # Bytes accessed per row activation
system.mem_ctrls.dram.bytesPerActivate::total          151                       # Bytes accessed per row activation
system.mem_ctrls.dram.bytesRead                 47232                       # Total number of bytes read from DRAM
system.mem_ctrls.dram.bytesWritten                  0                       # Total number of bytes written to DRAM
system.mem_ctrls.dram.avgRdBW              785.360946                       # Average DRAM read bandwidth in MiBytes/s
system.mem_ctrls.dram.avgWrBW                       0                       # Average DRAM write bandwidth in MiBytes/s
system.mem_ctrls.dram.peakBW                 12800.00                       # Theoretical peak bandwidth in MiByte/s
system.mem_ctrls.dram.busUtil                    6.14                       # Data bus utilization in percentage
system.mem_ctrls.dram.busUtilRead                6.14                       # Data bus utilization in percentage for reads
system.mem_ctrls.dram.busUtilWrite               0.00                       # Data bus utilization in percentage for writes
system.mem_ctrls.dram.pageHitRate               78.32                       # Row buffer hit rate, read and write combined
system.mem_ctrls.dram.power_state.pwrStateResidencyTicks::UNDEFINED     60140500                       # Cumulative time (in ticks) in various power states
system.mem_ctrls.dram.rank0.actEnergy          585480                       # Energy for activate commands per rank (pJ)
system.mem_ctrls.dram.rank0.preEnergy          292215                       # Energy for precharge commands per rank (pJ)
system.mem_ctrls.dram.rank0.readEnergy        2441880                       # Energy for read commands per rank (pJ)
system.mem_ctrls.dram.rank0.writeEnergy             0                       # Energy for write commands per rank (pJ)
system.mem_ctrls.dram.rank0.refreshEnergy 4302480.000000                       # Energy for refresh commands per rank (pJ)
system.mem_ctrls.dram.rank0.actBackEnergy     26113980                       # Energy for active background per rank (pJ)
system.mem_ctrls.dram.rank0.preBackEnergy      1103520                       # Energy for precharge background per rank (pJ)
system.mem_ctrls.dram.rank0.actPowerDownEnergy            0                       # Energy for active power-down per rank (pJ)
system.mem_ctrls.dram.rank0.prePowerDownEnergy            0                       # Energy for precharge power-down per rank (pJ)
system.mem_ctrls.dram.rank0.selfRefreshEnergy            0                       # Energy for self refresh per rank (pJ)
system.mem_ctrls.dram.rank0.totalEnergy      34839555                       # Total energy per rank (pJ)
system.mem_ctrls.dram.rank0.averagePower   579.302716                       # Core power per rank (mW)
system.mem_ctrls.dram.rank0.totalIdleTime            0                       # Total Idle time Per DRAM Rank
system.mem_ctrls.dram.rank0.pwrStateTime::IDLE      2554750                       # Time in different power states
system.mem_ctrls.dram.rank0.pwrStateTime::REF      1820000                       # Time in different power states
system.mem_ctrls.dram.rank0.pwrStateTime::SREF            0                       # Time in different power states
system.mem_ctrls.dram.rank0.pwrStateTime::PRE_PDN            0                       # Time in different power states
system.mem_ctrls.dram.rank0.pwrStateTime::ACT     55765750                       # Time in different power states
system.mem_ctrls.dram.rank0.pwrStateTime::ACT_PDN            0                       # Time in different power states
system.mem_ctrls.dram.rank1.actEnergy          556920                       # Energy for activate commands per rank (pJ)
system.mem_ctrls.dram.rank1.preEnergy          280830                       # Energy for precharge commands per rank (pJ)
system.mem_ctrls.dram.rank1.readEnergy        2827440                       # Energy for read commands per rank (pJ)
system.mem_ctrls.dram.rank1.writeEnergy             0                       # Energy for write commands per rank (pJ)
system.mem_ctrls.dram.rank1.refreshEnergy 4302480.000000                       # Energy for refresh commands per rank (pJ)
system.mem_ctrls.dram.rank1.actBackEnergy     26328300                       # Energy for active background per rank (pJ)
system.mem_ctrls.dram.rank1.preBackEnergy       923040                       # Energy for precharge background per rank (pJ)
system.mem_ctrls.dram.rank1.actPowerDownEnergy            0                       # Energy for active power-down per rank (pJ)
system.mem_ctrls.dram.rank1.prePowerDownEnergy            0                       # Energy for precharge power-down per rank (pJ)
system.mem_ctrls.dram.rank1.selfRefreshEnergy            0                       # Energy for self refresh per rank (pJ)
system.mem_ctrls.dram.rank1.totalEnergy      35219010                       # Total energy per rank (pJ)
system.mem_ctrls.dram.rank1.averagePower   585.612191                       # Core power per rank (mW)
system.mem_ctrls.dram.rank1.totalIdleTime            0                       # Total Idle time Per DRAM Rank
system.mem_ctrls.dram.rank1.pwrStateTime::IDLE      2194000                       # Time in different power states
system.mem_ctrls.dram.rank1.pwrStateTime::REF      1820000                       # Time in different power states
system.mem_ctrls.dram.rank1.pwrStateTime::SREF            0                       # Time in different power states
system.mem_ctrls.dram.rank1.pwrStateTime::PRE_PDN            0                       # Time in different power states
system.mem_ctrls.dram.rank1.pwrStateTime::ACT     56126500                       # Time in different power states
system.mem_ctrls.dram.rank1.pwrStateTime::ACT_PDN            0                       # Time in different power states
system.mem_ctrls.power_state.pwrStateResidencyTicks::UNDEFINED     60140500                       # Cumulative time (in ticks) in various power states
system.membus.trans_dist::ReadResp                660                       # Transaction distribution
system.membus.trans_dist::ReadExReq                78                       # Transaction distribution
system.membus.trans_dist::ReadExResp               78                       # Transaction distribution
system.membus.trans_dist::ReadSharedReq           660                       # Transaction distribution
system.membus.pkt_count_system.l2.mem_side_port::system.mem_ctrls.port         1476                       # Packet count per connected requestor and responder (bytes)
system.membus.pkt_count::total                   1476                       # Packet count per connected requestor and responder (bytes)
system.membus.pkt_size_system.l2.mem_side_port::system.mem_ctrls.port        47232                       # Cumulative packet size per connected requestor and responder (bytes)
system.membus.pkt_size::total                   47232                       # Cumulative packet size per connected requestor and responder (bytes)
system.membus.snoops                                0                       # Total snoops (count)
system.membus.snoopTraffic                          0                       # Total snoop traffic (bytes)
system.membus.snoop_fanout::samples               738                       # Request fanout histogram
system.membus.snoop_fanout::mean                    0                       # Request fanout histogram
system.membus.snoop_fanout::stdev                   0                       # Request fanout histogram
system.membus.snoop_fanout::underflows              0      0.00%      0.00% # Request fanout histogram
system.membus.snoop_fanout::0                     738    100.00%    100.00% # Request fanout histogram
system.membus.snoop_fanout::1                       0      0.00%    100.00% # Request fanout histogram
system.membus.snoop_fanout::overflows               0      0.00%    100.00% # Request fanout histogram
system.membus.snoop_fanout::min_value               0                       # Request fanout histogram
system.membus.snoop_fanout::max_value               0                       # Request fanout histogram
system.membus.snoop_fanout::total                 738                       # Request fanout histogram
system.membus.power_state.pwrStateResidencyTicks::UNDEFINED     60140500                       # Cumulative time (in ticks) in various power states
system.membus.reqLayer0.occupancy              831000                       # Layer occupancy (ticks)
system.membus.reqLayer0.utilization               1.4                       # Layer utilization (%)
system.membus.respLayer1.occupancy            3930000                       # Layer occupancy (ticks)
system.membus.respLayer1.utilization              6.5                       # Layer utilization (%)
system.tol2bus.trans_dist::ReadResp               711                       # Transaction distribution
system.tol2bus.trans_dist::WritebackClean          134                       # Transaction distribution
system.tol2bus.trans_dist::CleanEvict               2                       # Transaction distribution
system.tol2bus.trans_dist::ReadExReq               78                       # Transaction distribution
system.tol2bus.trans_dist::ReadExResp              78                       # Transaction distribution
system.tol2bus.trans_dist::ReadCleanReq           570                       # Transaction distribution
system.tol2bus.trans_dist::ReadSharedReq          141                       # Transaction distribution
system.tol2bus.pkt_count_system.cpu.icache.mem_side_port::system.l2.cpu_side_port         1274                       # Packet count per connected requestor and responder (bytes)
system.tol2bus.pkt_count_system.cpu.dcache.mem_side_port::system.l2.cpu_side_port          440                       # Packet count per connected requestor and responder (bytes)
system.tol2bus.pkt_count::total                  1714                       # Packet count per connected requestor and responder (bytes)
system.tol2bus.pkt_size_system.cpu.icache.mem_side_port::system.l2.cpu_side_port        45056                       # Cumulative packet size per connected requestor and responder (bytes)
system.tol2bus.pkt_size_system.cpu.dcache.mem_side_port::system.l2.cpu_side_port        14016                       # Cumulative packet size per connected requestor and responder (bytes)
system.tol2bus.pkt_size::total                  59072                       # Cumulative packet size per connected requestor and responder (bytes)
system.tol2bus.snoops                               0                       # Total snoops (count)
system.tol2bus.snoopTraffic                         0                       # Total snoop traffic (bytes)
system.tol2bus.snoop_fanout::samples              789                       # Request fanout histogram
system.tol2bus.snoop_fanout::mean            0.038023                       # Request fanout histogram
system.tol2bus.snoop_fanout::stdev           0.191373                       # Request fanout histogram
system.tol2bus.snoop_fanout::underflows             0      0.00%      0.00% # Request fanout histogram
system.tol2bus.snoop_fanout::0                    759     96.20%     96.20% # Request fanout histogram
system.tol2bus.snoop_fanout::1                     30      3.80%    100.00% # Request fanout histogram
system.tol2bus.snoop_fanout::2                      0      0.00%    100.00% # Request fanout histogram
system.tol2bus.snoop_fanout::overflows              0      0.00%    100.00% # Request fanout histogram
system.tol2bus.snoop_fanout::min_value              0                       # Request fanout histogram
system.tol2bus.snoop_fanout::max_value              1                       # Request fanout histogram
system.tol2bus.snoop_fanout::total                789                       # Request fanout histogram
system.tol2bus.power_state.pwrStateResidencyTicks::UNDEFINED     60140500                       # Cumulative time (in ticks) in various power states
system.tol2bus.reqLayer0.occupancy             596500                       # Layer occupancy (ticks)
system.tol2bus.reqLayer0.utilization              1.0                       # Layer utilization (%)
system.tol2bus.respLayer0.occupancy            855499                       # Layer occupancy (ticks)
system.tol2bus.respLayer0.utilization             1.4                       # Layer utilization (%)
system.tol2bus.respLayer1.occupancy            330995                       # Layer occupancy (ticks)
system.tol2bus.respLayer1.utilization             0.6                       # Layer utilization (%)
system.voltage_domain.voltage                       1                       # Voltage in Volts

---------- End Simulation Statistics   ----------
