
---------- Begin Simulation Statistics ----------
final_tick                               198996026000                       # Number of ticks from beginning of simulation (restored from checkpoints and never reset)
host_inst_rate                                 272791                       # Simulator instruction rate (inst/s)
host_mem_usage                                 714960                       # Number of bytes of host memory used
host_op_rate                                   272801                       # Simulator op (including micro ops) rate (op/s)
host_seconds                                   366.58                       # Real time elapsed on the host
host_tick_rate                              542843595                       # Simulator tick rate (ticks/s)
sim_freq                                 1000000000000                       # Frequency of simulated ticks
sim_insts                                   100000001                       # Number of instructions simulated
sim_ops                                     100003447                       # Number of ops (including micro ops) simulated
sim_seconds                                  0.198996                       # Number of seconds simulated
sim_ticks                                198996026000                       # Number of ticks simulated
system.cpu.committedInsts                   100000001                       # Number of instructions committed
system.cpu.committedOps                     100003447                       # Number of ops (including micro ops) committed
system.cpu.cpi                               1.989960                       # CPI: cycles per instruction
system.cpu.discardedOps                         21165                       # Number of ops (including micro ops) which were discarded before commit
system.cpu.idleCycles                        84222108                       # Total number of cycles that the object has spent stopped
system.cpu.ipc                               0.502523                       # IPC: instructions per cycle
system.cpu.numCycles                        198996026                       # number of cpu cycles simulated
system.cpu.numFetchSuspends                         0                       # Number of times Execute suspended instruction fetching
system.cpu.numWorkItemsCompleted                    0                       # number of work items this cpu completed
system.cpu.numWorkItemsStarted                      0                       # number of work items this cpu started
system.cpu.op_class_0::No_OpClass                   0      0.00%      0.00% # Class of committed instruction
system.cpu.op_class_0::IntAlu                49995247     49.99%     49.99% # Class of committed instruction
system.cpu.op_class_0::IntMult                     85      0.00%     49.99% # Class of committed instruction
system.cpu.op_class_0::IntDiv                       0      0.00%     49.99% # Class of committed instruction
system.cpu.op_class_0::FloatAdd                     0      0.00%     49.99% # Class of committed instruction
system.cpu.op_class_0::FloatCmp                     0      0.00%     49.99% # Class of committed instruction
system.cpu.op_class_0::FloatCvt                     0      0.00%     49.99% # Class of committed instruction
system.cpu.op_class_0::FloatMult                    0      0.00%     49.99% # Class of committed instruction
system.cpu.op_class_0::FloatMultAcc                 0      0.00%     49.99% # Class of committed instruction
system.cpu.op_class_0::FloatDiv                     0      0.00%     49.99% # Class of committed instruction
system.cpu.op_class_0::FloatMisc                    0      0.00%     49.99% # Class of committed instruction
system.cpu.op_class_0::FloatSqrt                    0      0.00%     49.99% # Class of committed instruction
system.cpu.op_class_0::SimdAdd                      0      0.00%     49.99% # Class of committed instruction
system.cpu.op_class_0::SimdAddAcc                   0      0.00%     49.99% # Class of committed instruction
system.cpu.op_class_0::SimdAlu                      0      0.00%     49.99% # Class of committed instruction
system.cpu.op_class_0::SimdCmp                      0      0.00%     49.99% # Class of committed instruction
system.cpu.op_class_0::SimdCvt                      0      0.00%     49.99% # Class of committed instruction
system.cpu.op_class_0::SimdMisc                     0      0.00%     49.99% # Class of committed instruction
system.cpu.op_class_0::SimdMult                     0      0.00%     49.99% # Class of committed instruction
system.cpu.op_class_0::SimdMultAcc                  0      0.00%     49.99% # Class of committed instruction
system.cpu.op_class_0::SimdShift                    0      0.00%     49.99% # Class of committed instruction
system.cpu.op_class_0::SimdShiftAcc                 0      0.00%     49.99% # Class of committed instruction
system.cpu.op_class_0::SimdDiv                      0      0.00%     49.99% # Class of committed instruction
system.cpu.op_class_0::SimdSqrt                     0      0.00%     49.99% # Class of committed instruction
system.cpu.op_class_0::SimdFloatAdd                 0      0.00%     49.99% # Class of committed instruction
system.cpu.op_class_0::SimdFloatAlu                 0      0.00%     49.99% # Class of committed instruction
system.cpu.op_class_0::SimdFloatCmp                 2      0.00%     49.99% # Class of committed instruction
system.cpu.op_class_0::SimdFloatCvt                 0      0.00%     49.99% # Class of committed instruction
system.cpu.op_class_0::SimdFloatDiv                 0      0.00%     49.99% # Class of committed instruction
system.cpu.op_class_0::SimdFloatMisc                5      0.00%     49.99% # Class of committed instruction
system.cpu.op_class_0::SimdFloatMult                0      0.00%     49.99% # Class of committed instruction
system.cpu.op_class_0::SimdFloatMultAcc             0      0.00%     49.99% # Class of committed instruction
system.cpu.op_class_0::SimdFloatSqrt                0      0.00%     49.99% # Class of committed instruction
system.cpu.op_class_0::SimdReduceAdd                0      0.00%     49.99% # Class of committed instruction
system.cpu.op_class_0::SimdReduceAlu                0      0.00%     49.99% # Class of committed instruction
system.cpu.op_class_0::SimdReduceCmp                0      0.00%     49.99% # Class of committed instruction
system.cpu.op_class_0::SimdFloatReduceAdd            0      0.00%     49.99% # Class of committed instruction
system.cpu.op_class_0::SimdFloatReduceCmp            0      0.00%     49.99% # Class of committed instruction
system.cpu.op_class_0::SimdAes                      0      0.00%     49.99% # Class of committed instruction
system.cpu.op_class_0::SimdAesMix                   0      0.00%     49.99% # Class of committed instruction
system.cpu.op_class_0::SimdSha1Hash                 0      0.00%     49.99% # Class of committed instruction
system.cpu.op_class_0::SimdSha1Hash2                0      0.00%     49.99% # Class of committed instruction
system.cpu.op_class_0::SimdSha256Hash               0      0.00%     49.99% # Class of committed instruction
system.cpu.op_class_0::SimdSha256Hash2              0      0.00%     49.99% # Class of committed instruction
system.cpu.op_class_0::SimdShaSigma2                0      0.00%     49.99% # Class of committed instruction
system.cpu.op_class_0::SimdShaSigma3                0      0.00%     49.99% # Class of committed instruction
system.cpu.op_class_0::SimdPredAlu                  0      0.00%     49.99% # Class of committed instruction
system.cpu.op_class_0::MemRead               36892277     36.89%     86.88% # Class of committed instruction
system.cpu.op_class_0::MemWrite              13115831     13.12%    100.00% # Class of committed instruction
system.cpu.op_class_0::FloatMemRead                 0      0.00%    100.00% # Class of committed instruction
system.cpu.op_class_0::FloatMemWrite                0      0.00%    100.00% # Class of committed instruction
system.cpu.op_class_0::IprAccess                    0      0.00%    100.00% # Class of committed instruction
system.cpu.op_class_0::InstPrefetch                 0      0.00%    100.00% # Class of committed instruction
system.cpu.op_class_0::total                100003447                       # Class of committed instruction
system.cpu.tickCycles                       114773918                       # Number of cycles that the object actually ticked
system.cpu.workload.numSyscalls                    19                       # Number of system calls
system.membus.snoop_filter.hit_multi_requests            0                       # Number of requests hitting in the snoop filter with multiple (>1) holders of the requested data.
system.membus.snoop_filter.hit_multi_snoops            0                       # Number of snoops hitting in the snoop filter with multiple (>1) holders of the requested data.
system.membus.snoop_filter.hit_single_requests       727429                       # Number of requests hitting in the snoop filter with a single holder of the requested data.
system.membus.snoop_filter.hit_single_snoops            0                       # Number of snoops hitting in the snoop filter with a single holder of the requested data.
system.membus.snoop_filter.tot_requests       1471587                       # Total number of requests made to the snoop filter.
system.membus.snoop_filter.tot_snoops               0                       # Total number of snoops made to the snoop filter.
system.tol2bus.snoop_filter.hit_multi_requests           28                       # Number of requests hitting in the snoop filter with multiple (>1) holders of the requested data.
system.tol2bus.snoop_filter.hit_multi_snoops            1                       # Number of snoops hitting in the snoop filter with multiple (>1) holders of the requested data.
system.tol2bus.snoop_filter.hit_single_requests       742821                       # Number of requests hitting in the snoop filter with a single holder of the requested data.
system.tol2bus.snoop_filter.hit_single_snoops          344                       # Number of snoops hitting in the snoop filter with a single holder of the requested data.
system.tol2bus.snoop_filter.tot_requests      1487007                       # Total number of requests made to the snoop filter.
system.tol2bus.snoop_filter.tot_snoops            345                       # Total number of snoops made to the snoop filter.
system.clk_domain.clock                          1000                       # Clock period in ticks
system.cpu.branchPred.lookups                  606528                       # Number of BP lookups
system.cpu.branchPred.condPredicted            604442                       # Number of conditional branches predicted
system.cpu.branchPred.condIncorrect               817                       # Number of conditional branches incorrect
system.cpu.branchPred.BTBLookups               602353                       # Number of BTB lookups
system.cpu.branchPred.BTBHits                  601191                       # Number of BTB hits
system.cpu.branchPred.BTBHitPct             99.807090                       # BTB Hit Percentage
system.cpu.branchPred.RASUsed                     558                       # Number of times the RAS was used to get a target.
system.cpu.branchPred.RASIncorrect                  2                       # Number of incorrect RAS predictions.
system.cpu.branchPred.indirectLookups             364                       # Number of indirect predictor lookups.
system.cpu.branchPred.indirectHits                168                       # Number of indirect target hits.
system.cpu.branchPred.indirectMisses              196                       # Number of indirect misses.
system.cpu.branchPred.indirectMispredicted          104                       # Number of mispredicted indirect branches.
system.cpu.dcache.demand_hits::.cpu.data     47307507                       # number of demand (read+write) hits
system.cpu.dcache.demand_hits::total         47307507                       # number of demand (read+write) hits
system.cpu.dcache.overall_hits::.cpu.data     47307542                       # number of overall hits
system.cpu.dcache.overall_hits::total        47307542                       # number of overall hits
system.cpu.dcache.demand_misses::.cpu.data      1487577                       # number of demand (read+write) misses
system.cpu.dcache.demand_misses::total        1487577                       # number of demand (read+write) misses
system.cpu.dcache.overall_misses::.cpu.data      1487594                       # number of overall misses
system.cpu.dcache.overall_misses::total       1487594                       # number of overall misses
system.cpu.dcache.demand_miss_latency::.cpu.data 162357543000                       # number of demand (read+write) miss cycles
system.cpu.dcache.demand_miss_latency::total 162357543000                       # number of demand (read+write) miss cycles
system.cpu.dcache.overall_miss_latency::.cpu.data 162357543000                       # number of overall miss cycles
system.cpu.dcache.overall_miss_latency::total 162357543000                       # number of overall miss cycles
system.cpu.dcache.demand_accesses::.cpu.data     48795084                       # number of demand (read+write) accesses
system.cpu.dcache.demand_accesses::total     48795084                       # number of demand (read+write) accesses
system.cpu.dcache.overall_accesses::.cpu.data     48795136                       # number of overall (read+write) accesses
system.cpu.dcache.overall_accesses::total     48795136                       # number of overall (read+write) accesses
system.cpu.dcache.demand_miss_rate::.cpu.data     0.030486                       # miss rate for demand accesses
system.cpu.dcache.demand_miss_rate::total     0.030486                       # miss rate for demand accesses
system.cpu.dcache.overall_miss_rate::.cpu.data     0.030487                       # miss rate for overall accesses
system.cpu.dcache.overall_miss_rate::total     0.030487                       # miss rate for overall accesses
system.cpu.dcache.demand_avg_miss_latency::.cpu.data 109142.278349                       # average overall miss latency
system.cpu.dcache.demand_avg_miss_latency::total 109142.278349                       # average overall miss latency
system.cpu.dcache.overall_avg_miss_latency::.cpu.data 109141.031088                       # average overall miss latency
system.cpu.dcache.overall_avg_miss_latency::total 109141.031088                       # average overall miss latency
system.cpu.dcache.blocked_cycles::no_mshrs            0                       # number of cycles access was blocked
system.cpu.dcache.blocked_cycles::no_targets            0                       # number of cycles access was blocked
system.cpu.dcache.blocked::no_mshrs                 0                       # number of cycles access was blocked
system.cpu.dcache.blocked::no_targets               0                       # number of cycles access was blocked
system.cpu.dcache.avg_blocked_cycles::no_mshrs          nan                       # average number of cycles each access was blocked
system.cpu.dcache.avg_blocked_cycles::no_targets          nan                       # average number of cycles each access was blocked
system.cpu.dcache.writebacks::.writebacks       742743                       # number of writebacks
system.cpu.dcache.writebacks::total            742743                       # number of writebacks
system.cpu.dcache.demand_mshr_hits::.cpu.data       743745                       # number of demand (read+write) MSHR hits
system.cpu.dcache.demand_mshr_hits::total       743745                       # number of demand (read+write) MSHR hits
system.cpu.dcache.overall_mshr_hits::.cpu.data       743745                       # number of overall MSHR hits
system.cpu.dcache.overall_mshr_hits::total       743745                       # number of overall MSHR hits
system.cpu.dcache.demand_mshr_misses::.cpu.data       743832                       # number of demand (read+write) MSHR misses
system.cpu.dcache.demand_mshr_misses::total       743832                       # number of demand (read+write) MSHR misses
system.cpu.dcache.overall_mshr_misses::.cpu.data       743843                       # number of overall MSHR misses
system.cpu.dcache.overall_mshr_misses::total       743843                       # number of overall MSHR misses
system.cpu.dcache.demand_mshr_miss_latency::.cpu.data  82897944000                       # number of demand (read+write) MSHR miss cycles
system.cpu.dcache.demand_mshr_miss_latency::total  82897944000                       # number of demand (read+write) MSHR miss cycles
system.cpu.dcache.overall_mshr_miss_latency::.cpu.data  82899131000                       # number of overall MSHR miss cycles
system.cpu.dcache.overall_mshr_miss_latency::total  82899131000                       # number of overall MSHR miss cycles
system.cpu.dcache.demand_mshr_miss_rate::.cpu.data     0.015244                       # mshr miss rate for demand accesses
system.cpu.dcache.demand_mshr_miss_rate::total     0.015244                       # mshr miss rate for demand accesses
system.cpu.dcache.overall_mshr_miss_rate::.cpu.data     0.015244                       # mshr miss rate for overall accesses
system.cpu.dcache.overall_mshr_miss_rate::total     0.015244                       # mshr miss rate for overall accesses
system.cpu.dcache.demand_avg_mshr_miss_latency::.cpu.data 111447.133224                       # average overall mshr miss latency
system.cpu.dcache.demand_avg_mshr_miss_latency::total 111447.133224                       # average overall mshr miss latency
system.cpu.dcache.overall_avg_mshr_miss_latency::.cpu.data 111447.080903                       # average overall mshr miss latency
system.cpu.dcache.overall_avg_mshr_miss_latency::total 111447.080903                       # average overall mshr miss latency
system.cpu.dcache.replacements                 742820                       # number of replacements
system.cpu.dcache.ReadReq_hits::.cpu.data     35702521                       # number of ReadReq hits
system.cpu.dcache.ReadReq_hits::total        35702521                       # number of ReadReq hits
system.cpu.dcache.ReadReq_misses::.cpu.data           86                       # number of ReadReq misses
system.cpu.dcache.ReadReq_misses::total            86                       # number of ReadReq misses
system.cpu.dcache.ReadReq_miss_latency::.cpu.data      8223000                       # number of ReadReq miss cycles
system.cpu.dcache.ReadReq_miss_latency::total      8223000                       # number of ReadReq miss cycles
system.cpu.dcache.ReadReq_accesses::.cpu.data     35702607                       # number of ReadReq accesses(hits+misses)
system.cpu.dcache.ReadReq_accesses::total     35702607                       # number of ReadReq accesses(hits+misses)
system.cpu.dcache.ReadReq_miss_rate::.cpu.data     0.000002                       # miss rate for ReadReq accesses
system.cpu.dcache.ReadReq_miss_rate::total     0.000002                       # miss rate for ReadReq accesses
system.cpu.dcache.ReadReq_avg_miss_latency::.cpu.data 95616.279070                       # average ReadReq miss latency
system.cpu.dcache.ReadReq_avg_miss_latency::total 95616.279070                       # average ReadReq miss latency
system.cpu.dcache.ReadReq_mshr_hits::.cpu.data            7                       # number of ReadReq MSHR hits
system.cpu.dcache.ReadReq_mshr_hits::total            7                       # number of ReadReq MSHR hits
system.cpu.dcache.ReadReq_mshr_misses::.cpu.data           79                       # number of ReadReq MSHR misses
system.cpu.dcache.ReadReq_mshr_misses::total           79                       # number of ReadReq MSHR misses
system.cpu.dcache.ReadReq_mshr_miss_latency::.cpu.data      7309000                       # number of ReadReq MSHR miss cycles
system.cpu.dcache.ReadReq_mshr_miss_latency::total      7309000                       # number of ReadReq MSHR miss cycles
system.cpu.dcache.ReadReq_mshr_miss_rate::.cpu.data     0.000002                       # mshr miss rate for ReadReq accesses
system.cpu.dcache.ReadReq_mshr_miss_rate::total     0.000002                       # mshr miss rate for ReadReq accesses
system.cpu.dcache.ReadReq_avg_mshr_miss_latency::.cpu.data 92518.987342                       # average ReadReq mshr miss latency
system.cpu.dcache.ReadReq_avg_mshr_miss_latency::total 92518.987342                       # average ReadReq mshr miss latency
system.cpu.dcache.WriteReq_hits::.cpu.data     11604986                       # number of WriteReq hits
system.cpu.dcache.WriteReq_hits::total       11604986                       # number of WriteReq hits
system.cpu.dcache.WriteReq_misses::.cpu.data      1487491                       # number of WriteReq misses
system.cpu.dcache.WriteReq_misses::total      1487491                       # number of WriteReq misses
system.cpu.dcache.WriteReq_miss_latency::.cpu.data 162349320000                       # number of WriteReq miss cycles
system.cpu.dcache.WriteReq_miss_latency::total 162349320000                       # number of WriteReq miss cycles
system.cpu.dcache.WriteReq_accesses::.cpu.data     13092477                       # number of WriteReq accesses(hits+misses)
system.cpu.dcache.WriteReq_accesses::total     13092477                       # number of WriteReq accesses(hits+misses)
system.cpu.dcache.WriteReq_miss_rate::.cpu.data     0.113614                       # miss rate for WriteReq accesses
system.cpu.dcache.WriteReq_miss_rate::total     0.113614                       # miss rate for WriteReq accesses
system.cpu.dcache.WriteReq_avg_miss_latency::.cpu.data 109143.060361                       # average WriteReq miss latency
system.cpu.dcache.WriteReq_avg_miss_latency::total 109143.060361                       # average WriteReq miss latency
system.cpu.dcache.WriteReq_mshr_hits::.cpu.data       743738                       # number of WriteReq MSHR hits
system.cpu.dcache.WriteReq_mshr_hits::total       743738                       # number of WriteReq MSHR hits
system.cpu.dcache.WriteReq_mshr_misses::.cpu.data       743753                       # number of WriteReq MSHR misses
system.cpu.dcache.WriteReq_mshr_misses::total       743753                       # number of WriteReq MSHR misses
system.cpu.dcache.WriteReq_mshr_miss_latency::.cpu.data  82890635000                       # number of WriteReq MSHR miss cycles
system.cpu.dcache.WriteReq_mshr_miss_latency::total  82890635000                       # number of WriteReq MSHR miss cycles
system.cpu.dcache.WriteReq_mshr_miss_rate::.cpu.data     0.056808                       # mshr miss rate for WriteReq accesses
system.cpu.dcache.WriteReq_mshr_miss_rate::total     0.056808                       # mshr miss rate for WriteReq accesses
system.cpu.dcache.WriteReq_avg_mshr_miss_latency::.cpu.data 111449.143735                       # average WriteReq mshr miss latency
system.cpu.dcache.WriteReq_avg_mshr_miss_latency::total 111449.143735                       # average WriteReq mshr miss latency
system.cpu.dcache.SoftPFReq_hits::.cpu.data           35                       # number of SoftPFReq hits
system.cpu.dcache.SoftPFReq_hits::total            35                       # number of SoftPFReq hits
system.cpu.dcache.SoftPFReq_misses::.cpu.data           17                       # number of SoftPFReq misses
system.cpu.dcache.SoftPFReq_misses::total           17                       # number of SoftPFReq misses
system.cpu.dcache.SoftPFReq_accesses::.cpu.data           52                       # number of SoftPFReq accesses(hits+misses)
system.cpu.dcache.SoftPFReq_accesses::total           52                       # number of SoftPFReq accesses(hits+misses)
system.cpu.dcache.SoftPFReq_miss_rate::.cpu.data     0.326923                       # miss rate for SoftPFReq accesses
system.cpu.dcache.SoftPFReq_miss_rate::total     0.326923                       # miss rate for SoftPFReq accesses
system.cpu.dcache.SoftPFReq_mshr_misses::.cpu.data           11                       # number of SoftPFReq MSHR misses
system.cpu.dcache.SoftPFReq_mshr_misses::total           11                       # number of SoftPFReq MSHR misses
system.cpu.dcache.SoftPFReq_mshr_miss_latency::.cpu.data      1187000                       # number of SoftPFReq MSHR miss cycles
system.cpu.dcache.SoftPFReq_mshr_miss_latency::total      1187000                       # number of SoftPFReq MSHR miss cycles
system.cpu.dcache.SoftPFReq_mshr_miss_rate::.cpu.data     0.211538                       # mshr miss rate for SoftPFReq accesses
system.cpu.dcache.SoftPFReq_mshr_miss_rate::total     0.211538                       # mshr miss rate for SoftPFReq accesses
system.cpu.dcache.SoftPFReq_avg_mshr_miss_latency::.cpu.data 107909.090909                       # average SoftPFReq mshr miss latency
system.cpu.dcache.SoftPFReq_avg_mshr_miss_latency::total 107909.090909                       # average SoftPFReq mshr miss latency
system.cpu.dcache.LoadLockedReq_hits::.cpu.data           13                       # number of LoadLockedReq hits
system.cpu.dcache.LoadLockedReq_hits::total           13                       # number of LoadLockedReq hits
system.cpu.dcache.LoadLockedReq_misses::.cpu.data            1                       # number of LoadLockedReq misses
system.cpu.dcache.LoadLockedReq_misses::total            1                       # number of LoadLockedReq misses
system.cpu.dcache.LoadLockedReq_miss_latency::.cpu.data       100000                       # number of LoadLockedReq miss cycles
system.cpu.dcache.LoadLockedReq_miss_latency::total       100000                       # number of LoadLockedReq miss cycles
system.cpu.dcache.LoadLockedReq_accesses::.cpu.data           14                       # number of LoadLockedReq accesses(hits+misses)
system.cpu.dcache.LoadLockedReq_accesses::total           14                       # number of LoadLockedReq accesses(hits+misses)
system.cpu.dcache.LoadLockedReq_miss_rate::.cpu.data     0.071429                       # miss rate for LoadLockedReq accesses
system.cpu.dcache.LoadLockedReq_miss_rate::total     0.071429                       # miss rate for LoadLockedReq accesses
system.cpu.dcache.LoadLockedReq_avg_miss_latency::.cpu.data       100000                       # average LoadLockedReq miss latency
system.cpu.dcache.LoadLockedReq_avg_miss_latency::total       100000                       # average LoadLockedReq miss latency
system.cpu.dcache.LoadLockedReq_mshr_misses::.cpu.data            1                       # number of LoadLockedReq MSHR misses
system.cpu.dcache.LoadLockedReq_mshr_misses::total            1                       # number of LoadLockedReq MSHR misses
system.cpu.dcache.LoadLockedReq_mshr_miss_latency::.cpu.data        98000                       # number of LoadLockedReq MSHR miss cycles
system.cpu.dcache.LoadLockedReq_mshr_miss_latency::total        98000                       # number of LoadLockedReq MSHR miss cycles
system.cpu.dcache.LoadLockedReq_mshr_miss_rate::.cpu.data     0.071429                       # mshr miss rate for LoadLockedReq accesses
system.cpu.dcache.LoadLockedReq_mshr_miss_rate::total     0.071429                       # mshr miss rate for LoadLockedReq accesses
system.cpu.dcache.LoadLockedReq_avg_mshr_miss_latency::.cpu.data        98000                       # average LoadLockedReq mshr miss latency
system.cpu.dcache.LoadLockedReq_avg_mshr_miss_latency::total        98000                       # average LoadLockedReq mshr miss latency
system.cpu.dcache.StoreCondReq_hits::.cpu.data           14                       # number of StoreCondReq hits
system.cpu.dcache.StoreCondReq_hits::total           14                       # number of StoreCondReq hits
system.cpu.dcache.StoreCondReq_accesses::.cpu.data           14                       # number of StoreCondReq accesses(hits+misses)
system.cpu.dcache.StoreCondReq_accesses::total           14                       # number of StoreCondReq accesses(hits+misses)
system.cpu.dcache.power_state.pwrStateResidencyTicks::UNDEFINED 198996026000                       # Cumulative time (in ticks) in various power states
system.cpu.dcache.tags.tagsinuse          1023.127288                       # Cycle average of tags in use
system.cpu.dcache.tags.total_refs            48051413                       # Total number of references to valid blocks.
system.cpu.dcache.tags.sampled_refs            743844                       # Sample count of references to valid blocks.
system.cpu.dcache.tags.avg_refs             64.598777                       # Average number of references to valid blocks.
system.cpu.dcache.tags.warmup_cycle            255000                       # Cycle when the warmup percentage was hit.
system.cpu.dcache.tags.occ_blocks::.cpu.data  1023.127288                       # Average occupied blocks per requestor
system.cpu.dcache.tags.occ_percent::.cpu.data     0.999148                       # Average percentage of cache occupancy
system.cpu.dcache.tags.occ_percent::total     0.999148                       # Average percentage of cache occupancy
system.cpu.dcache.tags.occ_task_id_blocks::1024         1024                       # Occupied blocks per task id
system.cpu.dcache.tags.age_task_id_blocks_1024::0           37                       # Occupied blocks per task id
system.cpu.dcache.tags.age_task_id_blocks_1024::1          337                       # Occupied blocks per task id
system.cpu.dcache.tags.age_task_id_blocks_1024::2          647                       # Occupied blocks per task id
system.cpu.dcache.tags.age_task_id_blocks_1024::4            3                       # Occupied blocks per task id
system.cpu.dcache.tags.occ_task_id_percent::1024            1                       # Percentage of cache occupancy per task id
system.cpu.dcache.tags.tag_accesses         391105156                       # Number of tag accesses
system.cpu.dcache.tags.data_accesses        391105156                       # Number of data accesses
system.cpu.dcache.tags.power_state.pwrStateResidencyTicks::UNDEFINED 198996026000                       # Cumulative time (in ticks) in various power states
system.cpu.dtb.instHits                             0                       # ITB inst hits
system.cpu.dtb.instMisses                           0                       # ITB inst misses
system.cpu.dtb.readHits                             0                       # DTB read hits
system.cpu.dtb.readMisses                           0                       # DTB read misses
system.cpu.dtb.writeHits                            0                       # DTB write hits
system.cpu.dtb.writeMisses                          0                       # DTB write misses
system.cpu.dtb.inserts                              0                       # Number of times an entry is inserted into the TLB
system.cpu.dtb.flushTlb                             0                       # Number of times complete TLB was flushed
system.cpu.dtb.flushTlbMva                          0                       # Number of times TLB was flushed by MVA
system.cpu.dtb.flushTlbMvaAsid                      0                       # Number of times TLB was flushed by MVA & ASID
system.cpu.dtb.flushTlbAsid                         0                       # Number of times TLB was flushed by ASID
system.cpu.dtb.flushedEntries                       0                       # Number of entries that have been flushed from TLB
system.cpu.dtb.alignFaults                          0                       # Number of TLB faults due to alignment restrictions
system.cpu.dtb.prefetchFaults                       0                       # Number of TLB faults due to prefetch
system.cpu.dtb.domainFaults                         0                       # Number of TLB faults due to domain restrictions
system.cpu.dtb.permsFaults                          0                       # Number of TLB faults due to permissions restrictions
system.cpu.dtb.readAccesses                         0                       # DTB read accesses
system.cpu.dtb.writeAccesses                        0                       # DTB write accesses
system.cpu.dtb.instAccesses                         0                       # ITB inst accesses
system.cpu.dtb.hits                                 0                       # Total TLB (inst and data) hits
system.cpu.dtb.misses                               0                       # Total TLB (inst and data) misses
system.cpu.dtb.accesses                             0                       # Total TLB (inst and data) accesses
system.cpu.dtb.stage2_mmu.stage2_tlb.instHits            0                       # ITB inst hits
system.cpu.dtb.stage2_mmu.stage2_tlb.instMisses            0                       # ITB inst misses
system.cpu.dtb.stage2_mmu.stage2_tlb.readHits            0                       # DTB read hits
system.cpu.dtb.stage2_mmu.stage2_tlb.readMisses            0                       # DTB read misses
system.cpu.dtb.stage2_mmu.stage2_tlb.writeHits            0                       # DTB write hits
system.cpu.dtb.stage2_mmu.stage2_tlb.writeMisses            0                       # DTB write misses
system.cpu.dtb.stage2_mmu.stage2_tlb.inserts            0                       # Number of times an entry is inserted into the TLB
system.cpu.dtb.stage2_mmu.stage2_tlb.flushTlb            0                       # Number of times complete TLB was flushed
system.cpu.dtb.stage2_mmu.stage2_tlb.flushTlbMva            0                       # Number of times TLB was flushed by MVA
system.cpu.dtb.stage2_mmu.stage2_tlb.flushTlbMvaAsid            0                       # Number of times TLB was flushed by MVA & ASID
system.cpu.dtb.stage2_mmu.stage2_tlb.flushTlbAsid            0                       # Number of times TLB was flushed by ASID
system.cpu.dtb.stage2_mmu.stage2_tlb.flushedEntries            0                       # Number of entries that have been flushed from TLB
system.cpu.dtb.stage2_mmu.stage2_tlb.alignFaults            0                       # Number of TLB faults due to alignment restrictions
system.cpu.dtb.stage2_mmu.stage2_tlb.prefetchFaults            0                       # Number of TLB faults due to prefetch
system.cpu.dtb.stage2_mmu.stage2_tlb.domainFaults            0                       # Number of TLB faults due to domain restrictions
system.cpu.dtb.stage2_mmu.stage2_tlb.permsFaults            0                       # Number of TLB faults due to permissions restrictions
system.cpu.dtb.stage2_mmu.stage2_tlb.readAccesses            0                       # DTB read accesses
system.cpu.dtb.stage2_mmu.stage2_tlb.writeAccesses            0                       # DTB write accesses
system.cpu.dtb.stage2_mmu.stage2_tlb.instAccesses            0                       # ITB inst accesses
system.cpu.dtb.stage2_mmu.stage2_tlb.hits            0                       # Total TLB (inst and data) hits
system.cpu.dtb.stage2_mmu.stage2_tlb.misses            0                       # Total TLB (inst and data) misses
system.cpu.dtb.stage2_mmu.stage2_tlb.accesses            0                       # Total TLB (inst and data) accesses
system.cpu.dtb.stage2_mmu.stage2_tlb.walker.walks            0                       # Table walker walks requested
system.cpu.dtb.stage2_mmu.stage2_tlb.walker.requestOrigin_Requested::Data            0                       # Table walker requests started/completed, data/inst
system.cpu.dtb.stage2_mmu.stage2_tlb.walker.requestOrigin_Requested::Inst            0                       # Table walker requests started/completed, data/inst
system.cpu.dtb.stage2_mmu.stage2_tlb.walker.requestOrigin_Requested::total            0                       # Table walker requests started/completed, data/inst
system.cpu.dtb.stage2_mmu.stage2_tlb.walker.requestOrigin_Completed::Data            0                       # Table walker requests started/completed, data/inst
system.cpu.dtb.stage2_mmu.stage2_tlb.walker.requestOrigin_Completed::Inst            0                       # Table walker requests started/completed, data/inst
system.cpu.dtb.stage2_mmu.stage2_tlb.walker.requestOrigin_Completed::total            0                       # Table walker requests started/completed, data/inst
system.cpu.dtb.stage2_mmu.stage2_tlb.walker.requestOrigin::total            0                       # Table walker requests started/completed, data/inst
system.cpu.dtb.stage2_mmu.stage2_tlb.walker.power_state.pwrStateResidencyTicks::UNDEFINED 198996026000                       # Cumulative time (in ticks) in various power states
system.cpu.dtb.walker.walks                         0                       # Table walker walks requested
system.cpu.dtb.walker.requestOrigin_Requested::Data            0                       # Table walker requests started/completed, data/inst
system.cpu.dtb.walker.requestOrigin_Requested::Inst            0                       # Table walker requests started/completed, data/inst
system.cpu.dtb.walker.requestOrigin_Requested::total            0                       # Table walker requests started/completed, data/inst
system.cpu.dtb.walker.requestOrigin_Completed::Data            0                       # Table walker requests started/completed, data/inst
system.cpu.dtb.walker.requestOrigin_Completed::Inst            0                       # Table walker requests started/completed, data/inst
system.cpu.dtb.walker.requestOrigin_Completed::total            0                       # Table walker requests started/completed, data/inst
system.cpu.dtb.walker.requestOrigin::total            0                       # Table walker requests started/completed, data/inst
system.cpu.dtb.walker.power_state.pwrStateResidencyTicks::UNDEFINED 198996026000                       # Cumulative time (in ticks) in various power states
system.cpu.fetch2.intInstructions            49670124                       # Number of integer instructions successfully decoded
system.cpu.fetch2.fpInstructions                    0                       # Number of floating point instructions successfully decoded
system.cpu.fetch2.vecInstructions                   0                       # Number of SIMD instructions successfully decoded
system.cpu.fetch2.loadInstructions           37092502                       # Number of memory load instructions successfully decoded
system.cpu.fetch2.storeInstructions          13161079                       # Number of memory store instructions successfully decoded
system.cpu.fetch2.amoInstructions                   0                       # Number of memory atomic instructions successfully decoded
system.cpu.icache.demand_hits::.cpu.inst      3651363                       # number of demand (read+write) hits
system.cpu.icache.demand_hits::total          3651363                       # number of demand (read+write) hits
system.cpu.icache.overall_hits::.cpu.inst      3651363                       # number of overall hits
system.cpu.icache.overall_hits::total         3651363                       # number of overall hits
system.cpu.icache.demand_misses::.cpu.inst          343                       # number of demand (read+write) misses
system.cpu.icache.demand_misses::total            343                       # number of demand (read+write) misses
system.cpu.icache.overall_misses::.cpu.inst          343                       # number of overall misses
system.cpu.icache.overall_misses::total           343                       # number of overall misses
system.cpu.icache.demand_miss_latency::.cpu.inst     36332000                       # number of demand (read+write) miss cycles
system.cpu.icache.demand_miss_latency::total     36332000                       # number of demand (read+write) miss cycles
system.cpu.icache.overall_miss_latency::.cpu.inst     36332000                       # number of overall miss cycles
system.cpu.icache.overall_miss_latency::total     36332000                       # number of overall miss cycles
system.cpu.icache.demand_accesses::.cpu.inst      3651706                       # number of demand (read+write) accesses
system.cpu.icache.demand_accesses::total      3651706                       # number of demand (read+write) accesses
system.cpu.icache.overall_accesses::.cpu.inst      3651706                       # number of overall (read+write) accesses
system.cpu.icache.overall_accesses::total      3651706                       # number of overall (read+write) accesses
system.cpu.icache.demand_miss_rate::.cpu.inst     0.000094                       # miss rate for demand accesses
system.cpu.icache.demand_miss_rate::total     0.000094                       # miss rate for demand accesses
system.cpu.icache.overall_miss_rate::.cpu.inst     0.000094                       # miss rate for overall accesses
system.cpu.icache.overall_miss_rate::total     0.000094                       # miss rate for overall accesses
system.cpu.icache.demand_avg_miss_latency::.cpu.inst 105924.198251                       # average overall miss latency
system.cpu.icache.demand_avg_miss_latency::total 105924.198251                       # average overall miss latency
system.cpu.icache.overall_avg_miss_latency::.cpu.inst 105924.198251                       # average overall miss latency
system.cpu.icache.overall_avg_miss_latency::total 105924.198251                       # average overall miss latency
system.cpu.icache.blocked_cycles::no_mshrs            0                       # number of cycles access was blocked
system.cpu.icache.blocked_cycles::no_targets            0                       # number of cycles access was blocked
system.cpu.icache.blocked::no_mshrs                 0                       # number of cycles access was blocked
system.cpu.icache.blocked::no_targets               0                       # number of cycles access was blocked
system.cpu.icache.avg_blocked_cycles::no_mshrs          nan                       # average number of cycles each access was blocked
system.cpu.icache.avg_blocked_cycles::no_targets          nan                       # average number of cycles each access was blocked
system.cpu.icache.demand_mshr_misses::.cpu.inst          343                       # number of demand (read+write) MSHR misses
system.cpu.icache.demand_mshr_misses::total          343                       # number of demand (read+write) MSHR misses
system.cpu.icache.overall_mshr_misses::.cpu.inst          343                       # number of overall MSHR misses
system.cpu.icache.overall_mshr_misses::total          343                       # number of overall MSHR misses
system.cpu.icache.demand_mshr_miss_latency::.cpu.inst     35646000                       # number of demand (read+write) MSHR miss cycles
system.cpu.icache.demand_mshr_miss_latency::total     35646000                       # number of demand (read+write) MSHR miss cycles
system.cpu.icache.overall_mshr_miss_latency::.cpu.inst     35646000                       # number of overall MSHR miss cycles
system.cpu.icache.overall_mshr_miss_latency::total     35646000                       # number of overall MSHR miss cycles
system.cpu.icache.demand_mshr_miss_rate::.cpu.inst     0.000094                       # mshr miss rate for demand accesses
system.cpu.icache.demand_mshr_miss_rate::total     0.000094                       # mshr miss rate for demand accesses
system.cpu.icache.overall_mshr_miss_rate::.cpu.inst     0.000094                       # mshr miss rate for overall accesses
system.cpu.icache.overall_mshr_miss_rate::total     0.000094                       # mshr miss rate for overall accesses
system.cpu.icache.demand_avg_mshr_miss_latency::.cpu.inst 103924.198251                       # average overall mshr miss latency
system.cpu.icache.demand_avg_mshr_miss_latency::total 103924.198251                       # average overall mshr miss latency
system.cpu.icache.overall_avg_mshr_miss_latency::.cpu.inst 103924.198251                       # average overall mshr miss latency
system.cpu.icache.overall_avg_mshr_miss_latency::total 103924.198251                       # average overall mshr miss latency
system.cpu.icache.replacements                      0                       # number of replacements
system.cpu.icache.ReadReq_hits::.cpu.inst      3651363                       # number of ReadReq hits
system.cpu.icache.ReadReq_hits::total         3651363                       # number of ReadReq hits
system.cpu.icache.ReadReq_misses::.cpu.inst          343                       # number of ReadReq misses
system.cpu.icache.ReadReq_misses::total           343                       # number of ReadReq misses
system.cpu.icache.ReadReq_miss_latency::.cpu.inst     36332000                       # number of ReadReq miss cycles
system.cpu.icache.ReadReq_miss_latency::total     36332000                       # number of ReadReq miss cycles
system.cpu.icache.ReadReq_accesses::.cpu.inst      3651706                       # number of ReadReq accesses(hits+misses)
system.cpu.icache.ReadReq_accesses::total      3651706                       # number of ReadReq accesses(hits+misses)
system.cpu.icache.ReadReq_miss_rate::.cpu.inst     0.000094                       # miss rate for ReadReq accesses
system.cpu.icache.ReadReq_miss_rate::total     0.000094                       # miss rate for ReadReq accesses
system.cpu.icache.ReadReq_avg_miss_latency::.cpu.inst 105924.198251                       # average ReadReq miss latency
system.cpu.icache.ReadReq_avg_miss_latency::total 105924.198251                       # average ReadReq miss latency
system.cpu.icache.ReadReq_mshr_misses::.cpu.inst          343                       # number of ReadReq MSHR misses
system.cpu.icache.ReadReq_mshr_misses::total          343                       # number of ReadReq MSHR misses
system.cpu.icache.ReadReq_mshr_miss_latency::.cpu.inst     35646000                       # number of ReadReq MSHR miss cycles
system.cpu.icache.ReadReq_mshr_miss_latency::total     35646000                       # number of ReadReq MSHR miss cycles
system.cpu.icache.ReadReq_mshr_miss_rate::.cpu.inst     0.000094                       # mshr miss rate for ReadReq accesses
system.cpu.icache.ReadReq_mshr_miss_rate::total     0.000094                       # mshr miss rate for ReadReq accesses
system.cpu.icache.ReadReq_avg_mshr_miss_latency::.cpu.inst 103924.198251                       # average ReadReq mshr miss latency
system.cpu.icache.ReadReq_avg_mshr_miss_latency::total 103924.198251                       # average ReadReq mshr miss latency
system.cpu.icache.power_state.pwrStateResidencyTicks::UNDEFINED 198996026000                       # Cumulative time (in ticks) in various power states
system.cpu.icache.tags.tagsinuse           342.946738                       # Cycle average of tags in use
system.cpu.icache.tags.total_refs             3651706                       # Total number of references to valid blocks.
system.cpu.icache.tags.sampled_refs               343                       # Sample count of references to valid blocks.
system.cpu.icache.tags.avg_refs          10646.373178                       # Average number of references to valid blocks.
system.cpu.icache.tags.warmup_cycle            113000                       # Cycle when the warmup percentage was hit.
system.cpu.icache.tags.occ_blocks::.cpu.inst   342.946738                       # Average occupied blocks per requestor
system.cpu.icache.tags.occ_percent::.cpu.inst     0.334909                       # Average percentage of cache occupancy
system.cpu.icache.tags.occ_percent::total     0.334909                       # Average percentage of cache occupancy
system.cpu.icache.tags.occ_task_id_blocks::1024          343                       # Occupied blocks per task id
system.cpu.icache.tags.age_task_id_blocks_1024::4          343                       # Occupied blocks per task id
system.cpu.icache.tags.occ_task_id_percent::1024     0.334961                       # Percentage of cache occupancy per task id
system.cpu.icache.tags.tag_accesses          29213991                       # Number of tag accesses
system.cpu.icache.tags.data_accesses         29213991                       # Number of data accesses
system.cpu.icache.tags.power_state.pwrStateResidencyTicks::UNDEFINED 198996026000                       # Cumulative time (in ticks) in various power states
system.cpu.itb.instHits                             0                       # ITB inst hits
system.cpu.itb.instMisses                           0                       # ITB inst misses
system.cpu.itb.readHits                             0                       # DTB read hits
system.cpu.itb.readMisses                           0                       # DTB read misses
system.cpu.itb.writeHits                            0                       # DTB write hits
system.cpu.itb.writeMisses                          0                       # DTB write misses
system.cpu.itb.inserts                              0                       # Number of times an entry is inserted into the TLB
system.cpu.itb.flushTlb                             0                       # Number of times complete TLB was flushed
system.cpu.itb.flushTlbMva                          0                       # Number of times TLB was flushed by MVA
system.cpu.itb.flushTlbMvaAsid                      0                       # Number of times TLB was flushed by MVA & ASID
system.cpu.itb.flushTlbAsid                         0                       # Number of times TLB was flushed by ASID
system.cpu.itb.flushedEntries                       0                       # Number of entries that have been flushed from TLB
system.cpu.itb.alignFaults                          0                       # Number of TLB faults due to alignment restrictions
system.cpu.itb.prefetchFaults                       0                       # Number of TLB faults due to prefetch
system.cpu.itb.domainFaults                         0                       # Number of TLB faults due to domain restrictions
system.cpu.itb.permsFaults                          0                       # Number of TLB faults due to permissions restrictions
system.cpu.itb.readAccesses                         0                       # DTB read accesses
system.cpu.itb.writeAccesses                        0                       # DTB write accesses
system.cpu.itb.instAccesses                         0                       # ITB inst accesses
system.cpu.itb.hits                                 0                       # Total TLB (inst and data) hits
system.cpu.itb.misses                               0                       # Total TLB (inst and data) misses
system.cpu.itb.accesses                             0                       # Total TLB (inst and data) accesses
system.cpu.itb.stage2_mmu.stage2_tlb.instHits            0                       # ITB inst hits
system.cpu.itb.stage2_mmu.stage2_tlb.instMisses            0                       # ITB inst misses
system.cpu.itb.stage2_mmu.stage2_tlb.readHits            0                       # DTB read hits
system.cpu.itb.stage2_mmu.stage2_tlb.readMisses            0                       # DTB read misses
system.cpu.itb.stage2_mmu.stage2_tlb.writeHits            0                       # DTB write hits
system.cpu.itb.stage2_mmu.stage2_tlb.writeMisses            0                       # DTB write misses
system.cpu.itb.stage2_mmu.stage2_tlb.inserts            0                       # Number of times an entry is inserted into the TLB
system.cpu.itb.stage2_mmu.stage2_tlb.flushTlb            0                       # Number of times complete TLB was flushed
system.cpu.itb.stage2_mmu.stage2_tlb.flushTlbMva            0                       # Number of times TLB was flushed by MVA
system.cpu.itb.stage2_mmu.stage2_tlb.flushTlbMvaAsid            0                       # Number of times TLB was flushed by MVA & ASID
system.cpu.itb.stage2_mmu.stage2_tlb.flushTlbAsid            0                       # Number of times TLB was flushed by ASID
system.cpu.itb.stage2_mmu.stage2_tlb.flushedEntries            0                       # Number of entries that have been flushed from TLB
system.cpu.itb.stage2_mmu.stage2_tlb.alignFaults            0                       # Number of TLB faults due to alignment restrictions
system.cpu.itb.stage2_mmu.stage2_tlb.prefetchFaults            0                       # Number of TLB faults due to prefetch
system.cpu.itb.stage2_mmu.stage2_tlb.domainFaults            0                       # Number of TLB faults due to domain restrictions
system.cpu.itb.stage2_mmu.stage2_tlb.permsFaults            0                       # Number of TLB faults due to permissions restrictions
system.cpu.itb.stage2_mmu.stage2_tlb.readAccesses            0                       # DTB read accesses
system.cpu.itb.stage2_mmu.stage2_tlb.writeAccesses            0                       # DTB write accesses
system.cpu.itb.stage2_mmu.stage2_tlb.instAccesses            0                       # ITB inst accesses
system.cpu.itb.stage2_mmu.stage2_tlb.hits            0                       # Total TLB (inst and data) hits
system.cpu.itb.stage2_mmu.stage2_tlb.misses            0                       # Total TLB (inst and data) misses
system.cpu.itb.stage2_mmu.stage2_tlb.accesses            0                       # Total TLB (inst and data) accesses
system.cpu.itb.stage2_mmu.stage2_tlb.walker.walks            0                       # Table walker walks requested
system.cpu.itb.stage2_mmu.stage2_tlb.walker.requestOrigin_Requested::Data            0                       # Table walker requests started/completed, data/inst
system.cpu.itb.stage2_mmu.stage2_tlb.walker.requestOrigin_Requested::Inst            0                       # Table walker requests started/completed, data/inst
system.cpu.itb.stage2_mmu.stage2_tlb.walker.requestOrigin_Requested::total            0                       # Table walker requests started/completed, data/inst
system.cpu.itb.stage2_mmu.stage2_tlb.walker.requestOrigin_Completed::Data            0                       # Table walker requests started/completed, data/inst
system.cpu.itb.stage2_mmu.stage2_tlb.walker.requestOrigin_Completed::Inst            0                       # Table walker requests started/completed, data/inst
system.cpu.itb.stage2_mmu.stage2_tlb.walker.requestOrigin_Completed::total            0                       # Table walker requests started/completed, data/inst
system.cpu.itb.stage2_mmu.stage2_tlb.walker.requestOrigin::total            0                       # Table walker requests started/completed, data/inst
system.cpu.itb.stage2_mmu.stage2_tlb.walker.power_state.pwrStateResidencyTicks::UNDEFINED 198996026000                       # Cumulative time (in ticks) in various power states
system.cpu.itb.walker.walks                         0                       # Table walker walks requested
system.cpu.itb.walker.requestOrigin_Requested::Data            0                       # Table walker requests started/completed, data/inst
system.cpu.itb.walker.requestOrigin_Requested::Inst            0                       # Table walker requests started/completed, data/inst
system.cpu.itb.walker.requestOrigin_Requested::total            0                       # Table walker requests started/completed, data/inst
system.cpu.itb.walker.requestOrigin_Completed::Data            0                       # Table walker requests started/completed, data/inst
system.cpu.itb.walker.requestOrigin_Completed::Inst            0                       # Table walker requests started/completed, data/inst
system.cpu.itb.walker.requestOrigin_Completed::total            0                       # Table walker requests started/completed, data/inst
system.cpu.itb.walker.requestOrigin::total            0                       # Table walker requests started/completed, data/inst
system.cpu.itb.walker.power_state.pwrStateResidencyTicks::UNDEFINED 198996026000                       # Cumulative time (in ticks) in various power states
system.cpu.power_state.pwrStateResidencyTicks::ON 198996026000                       # Cumulative time (in ticks) in various power states
system.cpu.thread_0.numInsts                100000001                       # Number of Instructions committed
system.cpu.thread_0.numOps                  100003447                       # Number of Ops committed
system.cpu.thread_0.numMemRefs                      0                       # Number of Memory References
system.cpu_clk_domain.clock                      1000                       # Clock period in ticks
system.cpu_voltage_domain.voltage                   1                       # Voltage in Volts
system.l2.demand_hits::.cpu.inst                   10                       # number of demand (read+write) hits
system.l2.demand_hits::.cpu.data                   16                       # number of demand (read+write) hits
system.l2.demand_hits::total                       26                       # number of demand (read+write) hits
system.l2.overall_hits::.cpu.inst                  10                       # number of overall hits
system.l2.overall_hits::.cpu.data                  16                       # number of overall hits
system.l2.overall_hits::total                      26                       # number of overall hits
system.l2.demand_misses::.cpu.inst                333                       # number of demand (read+write) misses
system.l2.demand_misses::.cpu.data             743828                       # number of demand (read+write) misses
system.l2.demand_misses::total                 744161                       # number of demand (read+write) misses
system.l2.overall_misses::.cpu.inst               333                       # number of overall misses
system.l2.overall_misses::.cpu.data            743828                       # number of overall misses
system.l2.overall_misses::total                744161                       # number of overall misses
system.l2.demand_miss_latency::.cpu.inst     34386000                       # number of demand (read+write) miss cycles
system.l2.demand_miss_latency::.cpu.data  80667326000                       # number of demand (read+write) miss cycles
system.l2.demand_miss_latency::total      80701712000                       # number of demand (read+write) miss cycles
system.l2.overall_miss_latency::.cpu.inst     34386000                       # number of overall miss cycles
system.l2.overall_miss_latency::.cpu.data  80667326000                       # number of overall miss cycles
system.l2.overall_miss_latency::total     80701712000                       # number of overall miss cycles
system.l2.demand_accesses::.cpu.inst              343                       # number of demand (read+write) accesses
system.l2.demand_accesses::.cpu.data           743844                       # number of demand (read+write) accesses
system.l2.demand_accesses::total               744187                       # number of demand (read+write) accesses
system.l2.overall_accesses::.cpu.inst             343                       # number of overall (read+write) accesses
system.l2.overall_accesses::.cpu.data          743844                       # number of overall (read+write) accesses
system.l2.overall_accesses::total              744187                       # number of overall (read+write) accesses
system.l2.demand_miss_rate::.cpu.inst        0.970845                       # miss rate for demand accesses
system.l2.demand_miss_rate::.cpu.data        0.999978                       # miss rate for demand accesses
system.l2.demand_miss_rate::total            0.999965                       # miss rate for demand accesses
system.l2.overall_miss_rate::.cpu.inst       0.970845                       # miss rate for overall accesses
system.l2.overall_miss_rate::.cpu.data       0.999978                       # miss rate for overall accesses
system.l2.overall_miss_rate::total           0.999965                       # miss rate for overall accesses
system.l2.demand_avg_miss_latency::.cpu.inst 103261.261261                       # average overall miss latency
system.l2.demand_avg_miss_latency::.cpu.data 108448.896788                       # average overall miss latency
system.l2.demand_avg_miss_latency::total 108446.575405                       # average overall miss latency
system.l2.overall_avg_miss_latency::.cpu.inst 103261.261261                       # average overall miss latency
system.l2.overall_avg_miss_latency::.cpu.data 108448.896788                       # average overall miss latency
system.l2.overall_avg_miss_latency::total 108446.575405                       # average overall miss latency
system.l2.blocked_cycles::no_mshrs                  0                       # number of cycles access was blocked
system.l2.blocked_cycles::no_targets                0                       # number of cycles access was blocked
system.l2.blocked::no_mshrs                         0                       # number of cycles access was blocked
system.l2.blocked::no_targets                       0                       # number of cycles access was blocked
system.l2.avg_blocked_cycles::no_mshrs            nan                       # average number of cycles each access was blocked
system.l2.avg_blocked_cycles::no_targets          nan                       # average number of cycles each access was blocked
system.l2.writebacks::.writebacks              727380                       # number of writebacks
system.l2.writebacks::total                    727380                       # number of writebacks
system.l2.demand_mshr_hits::.cpu.inst               1                       # number of demand (read+write) MSHR hits
system.l2.demand_mshr_hits::.cpu.data               2                       # number of demand (read+write) MSHR hits
system.l2.demand_mshr_hits::total                   3                       # number of demand (read+write) MSHR hits
system.l2.overall_mshr_hits::.cpu.inst              1                       # number of overall MSHR hits
system.l2.overall_mshr_hits::.cpu.data              2                       # number of overall MSHR hits
system.l2.overall_mshr_hits::total                  3                       # number of overall MSHR hits
system.l2.demand_mshr_misses::.cpu.inst           332                       # number of demand (read+write) MSHR misses
system.l2.demand_mshr_misses::.cpu.data        743826                       # number of demand (read+write) MSHR misses
system.l2.demand_mshr_misses::total            744158                       # number of demand (read+write) MSHR misses
system.l2.overall_mshr_misses::.cpu.inst          332                       # number of overall MSHR misses
system.l2.overall_mshr_misses::.cpu.data       743826                       # number of overall MSHR misses
system.l2.overall_mshr_misses::total           744158                       # number of overall MSHR misses
system.l2.demand_mshr_miss_latency::.cpu.inst     27654000                       # number of demand (read+write) MSHR miss cycles
system.l2.demand_mshr_miss_latency::.cpu.data  65790624000                       # number of demand (read+write) MSHR miss cycles
system.l2.demand_mshr_miss_latency::total  65818278000                       # number of demand (read+write) MSHR miss cycles
system.l2.overall_mshr_miss_latency::.cpu.inst     27654000                       # number of overall MSHR miss cycles
system.l2.overall_mshr_miss_latency::.cpu.data  65790624000                       # number of overall MSHR miss cycles
system.l2.overall_mshr_miss_latency::total  65818278000                       # number of overall MSHR miss cycles
system.l2.demand_mshr_miss_rate::.cpu.inst     0.967930                       # mshr miss rate for demand accesses
system.l2.demand_mshr_miss_rate::.cpu.data     0.999976                       # mshr miss rate for demand accesses
system.l2.demand_mshr_miss_rate::total       0.999961                       # mshr miss rate for demand accesses
system.l2.overall_mshr_miss_rate::.cpu.inst     0.967930                       # mshr miss rate for overall accesses
system.l2.overall_mshr_miss_rate::.cpu.data     0.999976                       # mshr miss rate for overall accesses
system.l2.overall_mshr_miss_rate::total      0.999961                       # mshr miss rate for overall accesses
system.l2.demand_avg_mshr_miss_latency::.cpu.inst 83295.180723                       # average overall mshr miss latency
system.l2.demand_avg_mshr_miss_latency::.cpu.data 88448.943705                       # average overall mshr miss latency
system.l2.demand_avg_mshr_miss_latency::total 88446.644395                       # average overall mshr miss latency
system.l2.overall_avg_mshr_miss_latency::.cpu.inst 83295.180723                       # average overall mshr miss latency
system.l2.overall_avg_mshr_miss_latency::.cpu.data 88448.943705                       # average overall mshr miss latency
system.l2.overall_avg_mshr_miss_latency::total 88446.644395                       # average overall mshr miss latency
system.l2.replacements                         727774                       # number of replacements
system.l2.WritebackDirty_hits::.writebacks       742743                       # number of WritebackDirty hits
system.l2.WritebackDirty_hits::total           742743                       # number of WritebackDirty hits
system.l2.WritebackDirty_accesses::.writebacks       742743                       # number of WritebackDirty accesses(hits+misses)
system.l2.WritebackDirty_accesses::total       742743                       # number of WritebackDirty accesses(hits+misses)
system.l2.ReadExReq_misses::.cpu.data          743753                       # number of ReadExReq misses
system.l2.ReadExReq_misses::total              743753                       # number of ReadExReq misses
system.l2.ReadExReq_miss_latency::.cpu.data  80659375000                       # number of ReadExReq miss cycles
system.l2.ReadExReq_miss_latency::total   80659375000                       # number of ReadExReq miss cycles
system.l2.ReadExReq_accesses::.cpu.data        743753                       # number of ReadExReq accesses(hits+misses)
system.l2.ReadExReq_accesses::total            743753                       # number of ReadExReq accesses(hits+misses)
system.l2.ReadExReq_miss_rate::.cpu.data            1                       # miss rate for ReadExReq accesses
system.l2.ReadExReq_miss_rate::total                1                       # miss rate for ReadExReq accesses
system.l2.ReadExReq_avg_miss_latency::.cpu.data 108449.142390                       # average ReadExReq miss latency
system.l2.ReadExReq_avg_miss_latency::total 108449.142390                       # average ReadExReq miss latency
system.l2.ReadExReq_mshr_misses::.cpu.data       743753                       # number of ReadExReq MSHR misses
system.l2.ReadExReq_mshr_misses::total         743753                       # number of ReadExReq MSHR misses
system.l2.ReadExReq_mshr_miss_latency::.cpu.data  65784315000                       # number of ReadExReq MSHR miss cycles
system.l2.ReadExReq_mshr_miss_latency::total  65784315000                       # number of ReadExReq MSHR miss cycles
system.l2.ReadExReq_mshr_miss_rate::.cpu.data            1                       # mshr miss rate for ReadExReq accesses
system.l2.ReadExReq_mshr_miss_rate::total            1                       # mshr miss rate for ReadExReq accesses
system.l2.ReadExReq_avg_mshr_miss_latency::.cpu.data 88449.142390                       # average ReadExReq mshr miss latency
system.l2.ReadExReq_avg_mshr_miss_latency::total 88449.142390                       # average ReadExReq mshr miss latency
system.l2.ReadCleanReq_hits::.cpu.inst             10                       # number of ReadCleanReq hits
system.l2.ReadCleanReq_hits::total                 10                       # number of ReadCleanReq hits
system.l2.ReadCleanReq_misses::.cpu.inst          333                       # number of ReadCleanReq misses
system.l2.ReadCleanReq_misses::total              333                       # number of ReadCleanReq misses
system.l2.ReadCleanReq_miss_latency::.cpu.inst     34386000                       # number of ReadCleanReq miss cycles
system.l2.ReadCleanReq_miss_latency::total     34386000                       # number of ReadCleanReq miss cycles
system.l2.ReadCleanReq_accesses::.cpu.inst          343                       # number of ReadCleanReq accesses(hits+misses)
system.l2.ReadCleanReq_accesses::total            343                       # number of ReadCleanReq accesses(hits+misses)
system.l2.ReadCleanReq_miss_rate::.cpu.inst     0.970845                       # miss rate for ReadCleanReq accesses
system.l2.ReadCleanReq_miss_rate::total      0.970845                       # miss rate for ReadCleanReq accesses
system.l2.ReadCleanReq_avg_miss_latency::.cpu.inst 103261.261261                       # average ReadCleanReq miss latency
system.l2.ReadCleanReq_avg_miss_latency::total 103261.261261                       # average ReadCleanReq miss latency
system.l2.ReadCleanReq_mshr_hits::.cpu.inst            1                       # number of ReadCleanReq MSHR hits
system.l2.ReadCleanReq_mshr_hits::total             1                       # number of ReadCleanReq MSHR hits
system.l2.ReadCleanReq_mshr_misses::.cpu.inst          332                       # number of ReadCleanReq MSHR misses
system.l2.ReadCleanReq_mshr_misses::total          332                       # number of ReadCleanReq MSHR misses
system.l2.ReadCleanReq_mshr_miss_latency::.cpu.inst     27654000                       # number of ReadCleanReq MSHR miss cycles
system.l2.ReadCleanReq_mshr_miss_latency::total     27654000                       # number of ReadCleanReq MSHR miss cycles
system.l2.ReadCleanReq_mshr_miss_rate::.cpu.inst     0.967930                       # mshr miss rate for ReadCleanReq accesses
system.l2.ReadCleanReq_mshr_miss_rate::total     0.967930                       # mshr miss rate for ReadCleanReq accesses
system.l2.ReadCleanReq_avg_mshr_miss_latency::.cpu.inst 83295.180723                       # average ReadCleanReq mshr miss latency
system.l2.ReadCleanReq_avg_mshr_miss_latency::total 83295.180723                       # average ReadCleanReq mshr miss latency
system.l2.ReadSharedReq_hits::.cpu.data            16                       # number of ReadSharedReq hits
system.l2.ReadSharedReq_hits::total                16                       # number of ReadSharedReq hits
system.l2.ReadSharedReq_misses::.cpu.data           75                       # number of ReadSharedReq misses
system.l2.ReadSharedReq_misses::total              75                       # number of ReadSharedReq misses
system.l2.ReadSharedReq_miss_latency::.cpu.data      7951000                       # number of ReadSharedReq miss cycles
system.l2.ReadSharedReq_miss_latency::total      7951000                       # number of ReadSharedReq miss cycles
system.l2.ReadSharedReq_accesses::.cpu.data           91                       # number of ReadSharedReq accesses(hits+misses)
system.l2.ReadSharedReq_accesses::total            91                       # number of ReadSharedReq accesses(hits+misses)
system.l2.ReadSharedReq_miss_rate::.cpu.data     0.824176                       # miss rate for ReadSharedReq accesses
system.l2.ReadSharedReq_miss_rate::total     0.824176                       # miss rate for ReadSharedReq accesses
system.l2.ReadSharedReq_avg_miss_latency::.cpu.data 106013.333333                       # average ReadSharedReq miss latency
system.l2.ReadSharedReq_avg_miss_latency::total 106013.333333                       # average ReadSharedReq miss latency
system.l2.ReadSharedReq_mshr_hits::.cpu.data            2                       # number of ReadSharedReq MSHR hits
system.l2.ReadSharedReq_mshr_hits::total            2                       # number of ReadSharedReq MSHR hits
system.l2.ReadSharedReq_mshr_misses::.cpu.data           73                       # number of ReadSharedReq MSHR misses
system.l2.ReadSharedReq_mshr_misses::total           73                       # number of ReadSharedReq MSHR misses
system.l2.ReadSharedReq_mshr_miss_latency::.cpu.data      6309000                       # number of ReadSharedReq MSHR miss cycles
system.l2.ReadSharedReq_mshr_miss_latency::total      6309000                       # number of ReadSharedReq MSHR miss cycles
system.l2.ReadSharedReq_mshr_miss_rate::.cpu.data     0.802198                       # mshr miss rate for ReadSharedReq accesses
system.l2.ReadSharedReq_mshr_miss_rate::total     0.802198                       # mshr miss rate for ReadSharedReq accesses
system.l2.ReadSharedReq_avg_mshr_miss_latency::.cpu.data 86424.657534                       # average ReadSharedReq mshr miss latency
system.l2.ReadSharedReq_avg_mshr_miss_latency::total 86424.657534                       # average ReadSharedReq mshr miss latency
system.l2.power_state.pwrStateResidencyTicks::UNDEFINED 198996026000                       # Cumulative time (in ticks) in various power states
system.l2.tags.tagsinuse                 16212.193182                       # Cycle average of tags in use
system.l2.tags.total_refs                     1486976                       # Total number of references to valid blocks.
system.l2.tags.sampled_refs                    744158                       # Sample count of references to valid blocks.
system.l2.tags.avg_refs                      1.998199                       # Average number of references to valid blocks.
system.l2.tags.warmup_cycle                     92000                       # Cycle when the warmup percentage was hit.
system.l2.tags.occ_blocks::.cpu.inst         6.800179                       # Average occupied blocks per requestor
system.l2.tags.occ_blocks::.cpu.data     16205.393003                       # Average occupied blocks per requestor
system.l2.tags.occ_percent::.cpu.inst        0.000415                       # Average percentage of cache occupancy
system.l2.tags.occ_percent::.cpu.data        0.989099                       # Average percentage of cache occupancy
system.l2.tags.occ_percent::total            0.989514                       # Average percentage of cache occupancy
system.l2.tags.occ_task_id_blocks::1024         16384                       # Occupied blocks per task id
system.l2.tags.age_task_id_blocks_1024::0           37                       # Occupied blocks per task id
system.l2.tags.age_task_id_blocks_1024::1          337                       # Occupied blocks per task id
system.l2.tags.age_task_id_blocks_1024::2         3362                       # Occupied blocks per task id
system.l2.tags.age_task_id_blocks_1024::3        12648                       # Occupied blocks per task id
system.l2.tags.occ_task_id_percent::1024            1                       # Percentage of cache occupancy per task id
system.l2.tags.tag_accesses                  12639990                       # Number of tag accesses
system.l2.tags.data_accesses                 12639990                       # Number of data accesses
system.l2.tags.power_state.pwrStateResidencyTicks::UNDEFINED 198996026000                       # Cumulative time (in ticks) in various power states
system.mem_ctrls.avgPriority_.writebacks::samples   1454760.00                       # Average QoS priority value for accepted requests
system.mem_ctrls.avgPriority_.cpu.inst::samples       664.00                       # Average QoS priority value for accepted requests
system.mem_ctrls.avgPriority_.cpu.data::samples   1487652.00                       # Average QoS priority value for accepted requests
system.mem_ctrls.priorityMinLatency      0.000000018750                       # per QoS priority minimum request to response latency (s)
system.mem_ctrls.priorityMaxLatency      0.000086329500                       # per QoS priority maximum request to response latency (s)
system.mem_ctrls.numReadWriteTurnArounds        80819                       # Number of turnarounds from READ to WRITE
system.mem_ctrls.numWriteReadTurnArounds        80819                       # Number of turnarounds from WRITE to READ
system.mem_ctrls.numStayReadState             3008679                       # Number of times bus staying in READ state
system.mem_ctrls.numStayWriteState            1376209                       # Number of times bus staying in WRITE state
system.mem_ctrls.readReqs                      744158                       # Number of read requests accepted
system.mem_ctrls.writeReqs                     727380                       # Number of write requests accepted
system.mem_ctrls.readBursts                   1488316                       # Number of controller read bursts, including those serviced by the write queue
system.mem_ctrls.writeBursts                  1454760                       # Number of controller write bursts, including those merged in the write queue
system.mem_ctrls.servicedByWrQ                      0                       # Number of controller read bursts serviced by the write queue
system.mem_ctrls.mergedWrBursts                     0                       # Number of controller write bursts merged with an existing one
system.mem_ctrls.neitherReadNorWriteReqs            0                       # Number of requests that are neither read nor write
system.mem_ctrls.avgRdQLen                       2.00                       # Average read queue length when enqueuing
system.mem_ctrls.avgWrQLen                      24.64                       # Average write queue length when enqueuing
system.mem_ctrls.numRdRetry                         0                       # Number of times read queue was full causing retry
system.mem_ctrls.numWrRetry                         0                       # Number of times write queue was full causing retry
system.mem_ctrls.readPktSize::0                     0                       # Read request sizes (log2)
system.mem_ctrls.readPktSize::1                     0                       # Read request sizes (log2)
system.mem_ctrls.readPktSize::2                     0                       # Read request sizes (log2)
system.mem_ctrls.readPktSize::3                     0                       # Read request sizes (log2)
system.mem_ctrls.readPktSize::4                     0                       # Read request sizes (log2)
system.mem_ctrls.readPktSize::5                     0                       # Read request sizes (log2)
system.mem_ctrls.readPktSize::6               1488316                       # Read request sizes (log2)
system.mem_ctrls.readPktSize::7                     0                       # Read request sizes (log2)
system.mem_ctrls.writePktSize::0                    0                       # Write request sizes (log2)
system.mem_ctrls.writePktSize::1                    0                       # Write request sizes (log2)
system.mem_ctrls.writePktSize::2                    0                       # Write request sizes (log2)
system.mem_ctrls.writePktSize::3                    0                       # Write request sizes (log2)
system.mem_ctrls.writePktSize::4                    0                       # Write request sizes (log2)
system.mem_ctrls.writePktSize::5                    0                       # Write request sizes (log2)
system.mem_ctrls.writePktSize::6              1454760                       # Write request sizes (log2)
system.mem_ctrls.writePktSize::7                    0                       # Write request sizes (log2)
[...]
system.mem_ctrls.dram.bw_inst_read::total       213552                       # Instruction read bandwidth from this memory (bytes/s)
system.mem_ctrls.dram.bw_write::.writebacks    467871856                       # Write bandwidth from this memory (bytes/s)
system.mem_ctrls.dram.bw_write::total       467871856                       # Write bandwidth from this memory (bytes/s)
system.mem_ctrls.dram.bw_total::.writebacks    467871856                       # Total bandwidth to/from this memory (bytes/s)
system.mem_ctrls.dram.bw_total::.cpu.inst       213552                       # Total bandwidth to/from this memory (bytes/s)
system.mem_ctrls.dram.bw_total::.cpu.data    478450399                       # Total bandwidth to/from this memory (bytes/s)
system.mem_ctrls.dram.bw_total::total       946535807                       # Total bandwidth to/from this memory (bytes/s)
system.mem_ctrls.dram.readBursts              1488316                       # Number of DRAM read bursts
system.mem_ctrls.dram.writeBursts             1454743                       # Number of DRAM write bursts
system.mem_ctrls.dram.perBankRdBursts::0        93012                       # Per bank write bursts
system.mem_ctrls.dram.perBankRdBursts::1        92990                       # Per bank write bursts
system.mem_ctrls.dram.perBankRdBursts::2        93088                       # Per bank write bursts
system.mem_ctrls.dram.perBankRdBursts::3        93036                       # Per bank write bursts
system.mem_ctrls.dram.perBankRdBursts::4        93112                       # Per bank write bursts
system.mem_ctrls.dram.perBankRdBursts::5        93068                       # Per bank write bursts
system.mem_ctrls.dram.perBankRdBursts::6        93096                       # Per bank write bursts
system.mem_ctrls.dram.perBankRdBursts::7        93074                       # Per bank write bursts
system.mem_ctrls.dram.perBankRdBursts::8        93018                       # Per bank write bursts
system.mem_ctrls.dram.perBankRdBursts::9        92962                       # Per bank write bursts
system.mem_ctrls.dram.perBankRdBursts::10        92978                       # Per bank write bursts
system.mem_ctrls.dram.perBankRdBursts::11        92966                       # Per bank write bursts
system.mem_ctrls.dram.perBankRdBursts::12        93034                       # Per bank write bursts
system.mem_ctrls.dram.perBankRdBursts::13        92932                       # Per bank write bursts
system.mem_ctrls.dram.perBankRdBursts::14        92948                       # Per bank write bursts
system.mem_ctrls.dram.perBankRdBursts::15        93002                       # Per bank write bursts
system.mem_ctrls.dram.perBankWrBursts::0        90902                       # Per bank write bursts
system.mem_ctrls.dram.perBankWrBursts::1        90898                       # Per bank write bursts
system.mem_ctrls.dram.perBankWrBursts::2        90886                       # Per bank write bursts
system.mem_ctrls.dram.perBankWrBursts::3        90946                       # Per bank write bursts
system.mem_ctrls.dram.perBankWrBursts::4        91008                       # Per bank write bursts
system.mem_ctrls.dram.perBankWrBursts::5        91008                       # Per bank write bursts
system.mem_ctrls.dram.perBankWrBursts::6        91008                       # Per bank write bursts
system.mem_ctrls.dram.perBankWrBursts::7        90993                       # Per bank write bursts
system.mem_ctrls.dram.perBankWrBursts::8        90880                       # Per bank write bursts
system.mem_ctrls.dram.perBankWrBursts::9        90880                       # Per bank write bursts
system.mem_ctrls.dram.perBankWrBursts::10        90880                       # Per bank write bursts
system.mem_ctrls.dram.perBankWrBursts::11        90880                       # Per bank write bursts
system.mem_ctrls.dram.perBankWrBursts::12        90880                       # Per bank write bursts
system.mem_ctrls.dram.perBankWrBursts::13        90880                       # Per bank write bursts
system.mem_ctrls.dram.perBankWrBursts::14        90884                       # Per bank write bursts
system.mem_ctrls.dram.perBankWrBursts::15        90930                       # Per bank write bursts
system.mem_ctrls.dram.totQLat             23677670000                       # Total ticks spent queuing
system.mem_ctrls.dram.totBusLat            7441580000                       # Total ticks spent in databus transfers
system.mem_ctrls.dram.totMemAccLat        51583595000                       # Total ticks spent from burst creation until serviced by the DRAM
system.mem_ctrls.dram.avgQLat                15909.03                       # Average queueing delay per DRAM burst
system.mem_ctrls.dram.avgBusLat               5000.00                       # Average bus latency per DRAM burst
system.mem_ctrls.dram.avgMemAccLat           34659.03                       # Average memory access latency per DRAM burst
system.mem_ctrls.dram.readRowHits             1321387                       # Number of row buffer hits during reads
system.mem_ctrls.dram.writeRowHits            1292090                       # Number of row buffer hits during writes
system.mem_ctrls.dram.readRowHitRate            88.78                       # Row buffer hit rate for reads
system.mem_ctrls.dram.writeRowHitRate           88.82                       # Row buffer hit rate for writes
system.mem_ctrls.dram.bytesPerActivate::samples       329580                       # Bytes accessed per row activation
system.mem_ctrls.dram.bytesPerActivate::mean   571.501669                       # Bytes accessed per row activation
system.mem_ctrls.dram.bytesPerActivate::gmean   383.754558                       # Bytes accessed per row activation
system.mem_ctrls.dram.bytesPerActivate::stdev   414.703919                       # Bytes accessed per row activation
system.mem_ctrls.dram.bytesPerActivate::0-127         4555      1.38%      1.38% # Bytes accessed per row activation
system.mem_ctrls.dram.bytesPerActivate::128-255       129224     39.21%     40.59% # Bytes accessed per row activation
system.mem_ctrls.dram.bytesPerActivate::256-383        14169      4.30%     44.89% # Bytes accessed per row activation
system.mem_ctrls.dram.bytesPerActivate::384-511        10002      3.03%     47.92% # Bytes accessed per row activation
system.mem_ctrls.dram.bytesPerActivate::512-639        10372      3.15%     51.07% # Bytes accessed per row activation
system.mem_ctrls.dram.bytesPerActivate::640-767        10247      3.11%     54.18% # Bytes accessed per row activation
system.mem_ctrls.dram.bytesPerActivate::768-895         8376      2.54%     56.72% # Bytes accessed per row activation
system.mem_ctrls.dram.bytesPerActivate::896-1023        12227      3.71%     60.43% # Bytes accessed per row activation
system.mem_ctrls.dram.bytesPerActivate::1024-1151       130408     39.57%    100.00% # Bytes accessed per row activation
system.mem_ctrls.dram.bytesPerActivate::total       329580                       # Bytes accessed per row activation
system.mem_ctrls.dram.bytesRead              95252224                       # Total number of bytes read from DRAM
system.mem_ctrls.dram.bytesWritten           93103552                       # Total number of bytes written to DRAM
system.mem_ctrls.dram.avgRdBW              478.663951                       # Average DRAM read bandwidth in MiBytes/s
system.mem_ctrls.dram.avgWrBW              467.866388                       # Average DRAM write bandwidth in MiBytes/s
system.mem_ctrls.dram.peakBW                 12800.00                       # Theoretical peak bandwidth in MiByte/s
system.mem_ctrls.dram.busUtil                    7.39                       # Data bus utilization in percentage
system.mem_ctrls.dram.busUtilRead                3.74                       # Data bus utilization in percentage for reads
system.mem_ctrls.dram.busUtilWrite               3.66                       # Data bus utilization in percentage for writes
system.mem_ctrls.dram.pageHitRate               88.80                       # Row buffer hit rate, read and write combined
system.mem_ctrls.dram.power_state.pwrStateResidencyTicks::UNDEFINED 198996026000                       # Cumulative time (in ticks) in various power states
system.mem_ctrls.dram.rank0.actEnergy      1177157520                       # Energy for activate commands per rank (pJ)
system.mem_ctrls.dram.rank0.preEnergy       625670265                       # Energy for precharge commands per rank (pJ)
system.mem_ctrls.dram.rank0.readEnergy     5315558640                       # Energy for read commands per rank (pJ)
system.mem_ctrls.dram.rank0.writeEnergy    3798327780                       # Energy for write commands per rank (pJ)
system.mem_ctrls.dram.rank0.refreshEnergy 15708354480.000002                       # Energy for refresh commands per rank (pJ)
system.mem_ctrls.dram.rank0.actBackEnergy  45441048090                       # Energy for active background per rank (pJ)
system.mem_ctrls.dram.rank0.preBackEnergy  38148328320                       # Energy for precharge background per rank (pJ)
system.mem_ctrls.dram.rank0.actPowerDownEnergy            0                       # Energy for active power-down per rank (pJ)
system.mem_ctrls.dram.rank0.prePowerDownEnergy            0                       # Energy for precharge power-down per rank (pJ)
system.mem_ctrls.dram.rank0.selfRefreshEnergy            0                       # Energy for self refresh per rank (pJ)
system.mem_ctrls.dram.rank0.totalEnergy  110214445095                       # Total energy per rank (pJ)
system.mem_ctrls.dram.rank0.averagePower   553.852493                       # Core power per rank (mW)
system.mem_ctrls.dram.rank0.totalIdleTime            0                       # Total Idle time Per DRAM Rank
system.mem_ctrls.dram.rank0.pwrStateTime::IDLE  97436459750                       # Time in different power states
system.mem_ctrls.dram.rank0.pwrStateTime::REF   6644820000                       # Time in different power states
system.mem_ctrls.dram.rank0.pwrStateTime::SREF            0                       # Time in different power states
system.mem_ctrls.dram.rank0.pwrStateTime::PRE_PDN            0                       # Time in different power states
system.mem_ctrls.dram.rank0.pwrStateTime::ACT  94914746250                       # Time in different power states
system.mem_ctrls.dram.rank0.pwrStateTime::ACT_PDN            0                       # Time in different power states
system.mem_ctrls.dram.rank1.actEnergy      1176057960                       # Energy for activate commands per rank (pJ)
system.mem_ctrls.dram.rank1.preEnergy       625085835                       # Energy for precharge commands per rank (pJ)
system.mem_ctrls.dram.rank1.readEnergy     5311017600                       # Energy for read commands per rank (pJ)
system.mem_ctrls.dram.rank1.writeEnergy    3795430680                       # Energy for write commands per rank (pJ)
system.mem_ctrls.dram.rank1.refreshEnergy 15708354480.000002                       # Energy for refresh commands per rank (pJ)
system.mem_ctrls.dram.rank1.actBackEnergy  45408563220                       # Energy for active background per rank (pJ)
system.mem_ctrls.dram.rank1.preBackEnergy  38175684000                       # Energy for precharge background per rank (pJ)
system.mem_ctrls.dram.rank1.actPowerDownEnergy            0                       # Energy for active power-down per rank (pJ)
system.mem_ctrls.dram.rank1.prePowerDownEnergy            0                       # Energy for precharge power-down per rank (pJ)
system.mem_ctrls.dram.rank1.selfRefreshEnergy            0                       # Energy for self refresh per rank (pJ)
system.mem_ctrls.dram.rank1.totalEnergy  110200193775                       # Total energy per rank (pJ)
system.mem_ctrls.dram.rank1.averagePower   553.780877                       # Core power per rank (mW)
system.mem_ctrls.dram.rank1.totalIdleTime            0                       # Total Idle time Per DRAM Rank
system.mem_ctrls.dram.rank1.pwrStateTime::IDLE  97508168250                       # Time in different power states
system.mem_ctrls.dram.rank1.pwrStateTime::REF   6644820000                       # Time in different power states
system.mem_ctrls.dram.rank1.pwrStateTime::SREF            0                       # Time in different power states
system.mem_ctrls.dram.rank1.pwrStateTime::PRE_PDN            0                       # Time in different power states
system.mem_ctrls.dram.rank1.pwrStateTime::ACT  94843037750                       # Time in different power states
system.mem_ctrls.dram.rank1.pwrStateTime::ACT_PDN            0                       # Time in different power states
system.mem_ctrls.power_state.pwrStateResidencyTicks::UNDEFINED 198996026000                       # Cumulative time (in ticks) in various power states
system.membus.trans_dist::ReadResp                405                       # Transaction distribution
system.membus.trans_dist::WritebackDirty       727380                       # Transaction distribution
system.membus.trans_dist::CleanEvict               49                       # Transaction distribution
system.membus.trans_dist::ReadExReq            743753                       # Transaction distribution
system.membus.trans_dist::ReadExResp           743753                       # Transaction distribution
system.membus.trans_dist::ReadSharedReq           405                       # Transaction distribution
system.membus.pkt_count_system.l2.mem_side_port::system.mem_ctrls.port      2215745                       # Packet count per connected requestor and responder (bytes)
system.membus.pkt_count::total                2215745                       # Packet count per connected requestor and responder (bytes)
system.membus.pkt_size_system.l2.mem_side_port::system.mem_ctrls.port    188356864                       # Cumulative packet size per connected requestor and responder (bytes)
system.membus.pkt_size::total               188356864                       # Cumulative packet size per connected requestor and responder (bytes)
system.membus.snoops                                0                       # Total snoops (count)
system.membus.snoopTraffic                          0                       # Total snoop traffic (bytes)
system.membus.snoop_fanout::samples            744158                       # Request fanout histogram
system.membus.snoop_fanout::mean                    0                       # Request fanout histogram
system.membus.snoop_fanout::stdev                   0                       # Request fanout histogram
system.membus.snoop_fanout::underflows              0      0.00%      0.00% # Request fanout histogram
system.membus.snoop_fanout::0                  744158    100.00%    100.00% # Request fanout histogram
system.membus.snoop_fanout::1                       0      0.00%    100.00% # Request fanout histogram
system.membus.snoop_fanout::overflows               0      0.00%    100.00% # Request fanout histogram
system.membus.snoop_fanout::min_value               0                       # Request fanout histogram
system.membus.snoop_fanout::max_value               0                       # Request fanout histogram
system.membus.snoop_fanout::total              744158                       # Request fanout histogram
system.membus.power_state.pwrStateResidencyTicks::UNDEFINED 198996026000                       # Cumulative time (in ticks) in various power states
system.membus.reqLayer0.occupancy          7290627000                       # Layer occupancy (ticks)
system.membus.reqLayer0.utilization               3.7                       # Layer utilization (%)
system.membus.respLayer1.occupancy         6911449500                       # Layer occupancy (ticks)
system.membus.respLayer1.utilization              3.5                       # Layer utilization (%)
system.tol2bus.trans_dist::ReadResp               434                       # Transaction distribution
system.tol2bus.trans_dist::WritebackDirty      1470123                       # Transaction distribution
system.tol2bus.trans_dist::CleanEvict             471                       # Transaction distribution
system.tol2bus.trans_dist::ReadExReq           743753                       # Transaction distribution
system.tol2bus.trans_dist::ReadExResp          743753                       # Transaction distribution
system.tol2bus.trans_dist::ReadCleanReq           343                       # Transaction distribution
system.tol2bus.trans_dist::ReadSharedReq           91                       # Transaction distribution
system.tol2bus.pkt_count_system.cpu.icache.mem_side_port::system.l2.cpu_side_port          686                       # Packet count per connected requestor and responder (bytes)
system.tol2bus.pkt_count_system.cpu.dcache.mem_side_port::system.l2.cpu_side_port      2230508                       # Packet count per connected requestor and responder (bytes)
system.tol2bus.pkt_count::total               2231194                       # Packet count per connected requestor and responder (bytes)
system.tol2bus.pkt_size_system.cpu.icache.mem_side_port::system.l2.cpu_side_port        43904                       # Cumulative packet size per connected requestor and responder (bytes)
system.tol2bus.pkt_size_system.cpu.dcache.mem_side_port::system.l2.cpu_side_port    190283136                       # Cumulative packet size per connected requestor and responder (bytes)
system.tol2bus.pkt_size::total              190327040                       # Cumulative packet size per connected requestor and responder (bytes)
system.tol2bus.snoops                          727774                       # Total snoops (count)
system.tol2bus.snoopTraffic                  93104640                       # Total snoop traffic (bytes)
system.tol2bus.snoop_fanout::samples          1471961                       # Request fanout histogram
system.tol2bus.snoop_fanout::mean            0.000255                       # Request fanout histogram
system.tol2bus.snoop_fanout::stdev           0.016002                       # Request fanout histogram
system.tol2bus.snoop_fanout::underflows             0      0.00%      0.00% # Request fanout histogram
system.tol2bus.snoop_fanout::0                1471587     99.97%     99.97% # Request fanout histogram
system.tol2bus.snoop_fanout::1                    373      0.03%    100.00% # Request fanout histogram
system.tol2bus.snoop_fanout::2                      1      0.00%    100.00% # Request fanout histogram
system.tol2bus.snoop_fanout::overflows              0      0.00%    100.00% # Request fanout histogram
system.tol2bus.snoop_fanout::min_value              0                       # Request fanout histogram
system.tol2bus.snoop_fanout::max_value              2                       # Request fanout histogram
system.tol2bus.snoop_fanout::total            1471961                       # Request fanout histogram
system.tol2bus.power_state.pwrStateResidencyTicks::UNDEFINED 198996026000                       # Cumulative time (in ticks) in various power states
system.tol2bus.reqLayer0.occupancy         4457979000                       # Layer occupancy (ticks)
system.tol2bus.reqLayer0.utilization              2.2                       # Layer utilization (%)
system.tol2bus.respLayer0.occupancy           1715999                       # Layer occupancy (ticks)
system.tol2bus.respLayer0.utilization             0.0                       # Layer utilization (%)
system.tol2bus.respLayer1.occupancy        3719221998                       # Layer occupancy (ticks)
system.tol2bus.respLayer1.utilization             1.9                       # Layer utilization (%)
system.voltage_domain.voltage                       1                       # Voltage in Volts

---------- End Simulation Statistics   ----------
