
---------- Begin Simulation Statistics ----------
final_tick                                   76265000                       # Number of ticks from beginning of simulation (restored from checkpoints and never reset)
host_inst_rate                                  71666                       # Simulator instruction rate (inst/s)
host_mem_usage                                 657000                       # Number of bytes of host memory used
host_op_rate                                    85366                       # Simulator op (including micro ops) rate (op/s)
host_seconds                                     0.50                       # Real time elapsed on the host
host_tick_rate                              154045488                       # Simulator tick rate (ticks/s)
sim_freq                                 1000000000000                       # Frequency of simulated ticks
sim_insts                                       35400                       # Number of instructions simulated
sim_ops                                         42239                       # Number of ops (including micro ops) simulated
sim_seconds                                  0.000076                       # Number of seconds simulated
sim_ticks                                    76265000                       # Number of ticks simulated
system.cpu.committedInsts                       35400                       # Number of instructions committed
system.cpu.committedOps                         42239                       # Number of ops (including micro ops) committed
system.cpu.cpi                               2.154379                       # CPI: cycles per instruction
system.cpu.discardedOps                          2569                       # Number of ops (including micro ops) which were discarded before commit
system.cpu.idleCycles                           26015                       # Total number of cycles that the object has spent stopped
system.cpu.ipc                               0.464171                       # IPC: instructions per cycle
system.cpu.numCycles                            76265                       # number of cpu cycles simulated
system.cpu.numFetchSuspends                         0                       # Number of times Execute suspended instruction fetching
system.cpu.numWorkItemsCompleted                    0                       # number of work items this cpu completed
system.cpu.numWorkItemsStarted                      0                       # number of work items this cpu started
system.cpu.op_class_0::No_OpClass                   0      0.00%      0.00% # Class of committed instruction
system.cpu.op_class_0::IntAlu                   28379     67.19%     67.19% # Class of committed instruction
system.cpu.op_class_0::IntMult                    209      0.49%     67.68% # Class of committed instruction
system.cpu.op_class_0::IntDiv                       0      0.00%     67.68% # Class of committed instruction
system.cpu.op_class_0::FloatAdd                     0      0.00%     67.68% # Class of committed instruction
system.cpu.op_class_0::FloatCmp                     0      0.00%     67.68% # Class of committed instruction
system.cpu.op_class_0::FloatCvt                     0      0.00%     67.68% # Class of committed instruction
system.cpu.op_class_0::FloatMult                    0      0.00%     67.68% # Class of committed instruction
system.cpu.op_class_0::FloatMultAcc                 0      0.00%     67.68% # Class of committed instruction
system.cpu.op_class_0::FloatDiv                     0      0.00%     67.68% # Class of committed instruction
system.cpu.op_class_0::FloatMisc                    0      0.00%     67.68% # Class of committed instruction
system.cpu.op_class_0::FloatSqrt                    0      0.00%     67.68% # Class of committed instruction
system.cpu.op_class_0::SimdAdd                      0      0.00%     67.68% # Class of committed instruction
system.cpu.op_class_0::SimdAddAcc                   0      0.00%     67.68% # Class of committed instruction
system.cpu.op_class_0::SimdAlu                      0      0.00%     67.68% # Class of committed instruction
system.cpu.op_class_0::SimdCmp                      0      0.00%     67.68% # Class of committed instruction
system.cpu.op_class_0::SimdCvt                      0      0.00%     67.68% # Class of committed instruction
system.cpu.op_class_0::SimdMisc                     0      0.00%     67.68% # Class of committed instruction
system.cpu.op_class_0::SimdMult                     0      0.00%     67.68% # Class of committed instruction
system.cpu.op_class_0::SimdMultAcc                  0      0.00%     67.68% # Class of committed instruction
system.cpu.op_class_0::SimdShift                    0      0.00%     67.68% # Class of committed instruction
system.cpu.op_class_0::SimdShiftAcc                 0      0.00%     67.68% # Class of committed instruction
system.cpu.op_class_0::SimdDiv                      0      0.00%     67.68% # Class of committed instruction
system.cpu.op_class_0::SimdSqrt                     0      0.00%     67.68% # Class of committed instruction
system.cpu.op_class_0::SimdFloatAdd                 0      0.00%     67.68% # Class of committed instruction
system.cpu.op_class_0::SimdFloatAlu                 0      0.00%     67.68% # Class of committed instruction
system.cpu.op_class_0::SimdFloatCmp                 0      0.00%     67.68% # Class of committed instruction
system.cpu.op_class_0::SimdFloatCvt                 0      0.00%     67.68% # Class of committed instruction
system.cpu.op_class_0::SimdFloatDiv                 0      0.00%     67.68% # Class of committed instruction
system.cpu.op_class_0::SimdFloatMisc               21      0.05%     67.73% # Class of committed instruction
system.cpu.op_class_0::SimdFloatMult                0      0.00%     67.73% # Class of committed instruction
system.cpu.op_class_0::SimdFloatMultAcc             0      0.00%     67.73% # Class of committed instruction
system.cpu.op_class_0::SimdFloatSqrt                0      0.00%     67.73% # Class of committed instruction
system.cpu.op_class_0::SimdReduceAdd                0      0.00%     67.73% # Class of committed instruction
system.cpu.op_class_0::SimdReduceAlu                0      0.00%     67.73% # Class of committed instruction
system.cpu.op_class_0::SimdReduceCmp                0      0.00%     67.73% # Class of committed instruction
system.cpu.op_class_0::SimdFloatReduceAdd            0      0.00%     67.73% # Class of committed instruction
system.cpu.op_class_0::SimdFloatReduceCmp            0      0.00%     67.73% # Class of committed instruction
system.cpu.op_class_0::SimdAes                      0      0.00%     67.73% # Class of committed instruction
system.cpu.op_class_0::SimdAesMix                   0      0.00%     67.73% # Class of committed instruction
system.cpu.op_class_0::SimdSha1Hash                 0      0.00%     67.73% # Class of committed instruction
system.cpu.op_class_0::SimdSha1Hash2                0      0.00%     67.73% # Class of committed instruction
system.cpu.op_class_0::SimdSha256Hash               0      0.00%     67.73% # Class of committed instruction
system.cpu.op_class_0::SimdSha256Hash2              0      0.00%     67.73% # Class of committed instruction
system.cpu.op_class_0::SimdShaSigma2                0      0.00%     67.73% # Class of committed instruction
system.cpu.op_class_0::SimdShaSigma3                0      0.00%     67.73% # Class of committed instruction
system.cpu.op_class_0::SimdPredAlu                  0      0.00%     67.73% # Class of committed instruction
system.cpu.op_class_0::MemRead                   7218     17.09%     84.82% # Class of committed instruction
system.cpu.op_class_0::MemWrite                  6412     15.18%    100.00% # Class of committed instruction
system.cpu.op_class_0::FloatMemRead                 0      0.00%    100.00% # Class of committed instruction
system.cpu.op_class_0::FloatMemWrite                0      0.00%    100.00% # Class of committed instruction
system.cpu.op_class_0::IprAccess                    0      0.00%    100.00% # Class of committed instruction
system.cpu.op_class_0::InstPrefetch                 0      0.00%    100.00% # Class of committed instruction
system.cpu.op_class_0::total                    42239                       # Class of committed instruction
system.cpu.tickCycles                           50250                       # Number of cycles that the object actually ticked
system.cpu.workload.numSyscalls                    23                       # Number of system calls
system.membus.snoop_filter.hit_multi_requests           18                       # Number of requests hitting in the snoop filter with multiple (>1) holders of the requested data.
system.membus.snoop_filter.hit_multi_snoops            0                       # Number of snoops hitting in the snoop filter with multiple (>1) holders of the requested data.
system.membus.snoop_filter.hit_single_requests          260                       # Number of requests hitting in the snoop filter with a single holder of the requested data.
system.membus.snoop_filter.hit_single_snoops            0                       # Number of snoops hitting in the snoop filter with a single holder of the requested data.
system.membus.snoop_filter.tot_requests           993                       # Total number of requests made to the snoop filter.
system.membus.snoop_filter.tot_snoops               0                       # Total number of snoops made to the snoop filter.
system.clk_domain.clock                           500                       # Clock period in ticks
system.cpu.branchPred.lookups                    9389                       # Number of BP lookups
system.cpu.branchPred.condPredicted              6273                       # Number of conditional branches predicted
system.cpu.branchPred.condIncorrect               840                       # Number of conditional branches incorrect
system.cpu.branchPred.BTBLookups                 3794                       # Number of BTB lookups
system.cpu.branchPred.BTBHits                    2689                       # Number of BTB hits
system.cpu.branchPred.BTBHitPct             70.875066                       # BTB Hit Percentage
system.cpu.branchPred.RASUsed                     998                       # Number of times the RAS was used to get a target.
system.cpu.branchPred.RASIncorrect                  0                       # Number of incorrect RAS predictions.
system.cpu.branchPred.indirectLookups             434                       # Number of indirect predictor lookups.
system.cpu.branchPred.indirectHits                213                       # Number of indirect target hits.
system.cpu.branchPred.indirectMisses              221                       # Number of indirect misses.
system.cpu.branchPred.indirectMispredicted          100                       # Number of mispredicted indirect branches.
system.cpu.dcache.demand_hits::.cpu.data        13370                       # number of demand (read+write) hits
system.cpu.dcache.demand_hits::total            13370                       # number of demand (read+write) hits
system.cpu.dcache.overall_hits::.cpu.data        13398                       # number of overall hits
system.cpu.dcache.overall_hits::total           13398                       # number of overall hits
system.cpu.dcache.demand_misses::.cpu.data          238                       # number of demand (read+write) misses
system.cpu.dcache.demand_misses::total            238                       # number of demand (read+write) misses
system.cpu.dcache.overall_misses::.cpu.data          252                       # number of overall misses
system.cpu.dcache.overall_misses::total           252                       # number of overall misses
system.cpu.dcache.demand_miss_latency::.cpu.data     13208000                       # number of demand (read+write) miss cycles
system.cpu.dcache.demand_miss_latency::total     13208000                       # number of demand (read+write) miss cycles
system.cpu.dcache.overall_miss_latency::.cpu.data     13208000                       # number of overall miss cycles
system.cpu.dcache.overall_miss_latency::total     13208000                       # number of overall miss cycles
system.cpu.dcache.demand_accesses::.cpu.data        13608                       # number of demand (read+write) accesses
system.cpu.dcache.demand_accesses::total        13608                       # number of demand (read+write) accesses
system.cpu.dcache.overall_accesses::.cpu.data        13650                       # number of overall (read+write) accesses
system.cpu.dcache.overall_accesses::total        13650                       # number of overall (read+write) accesses
system.cpu.dcache.demand_miss_rate::.cpu.data     0.017490                       # miss rate for demand accesses
system.cpu.dcache.demand_miss_rate::total     0.017490                       # miss rate for demand accesses
system.cpu.dcache.overall_miss_rate::.cpu.data     0.018462                       # miss rate for overall accesses
system.cpu.dcache.overall_miss_rate::total     0.018462                       # miss rate for overall accesses
system.cpu.dcache.demand_avg_miss_latency::.cpu.data 55495.798319                       # average overall miss latency
system.cpu.dcache.demand_avg_miss_latency::total 55495.798319                       # average overall miss latency
system.cpu.dcache.overall_avg_miss_latency::.cpu.data 52412.698413                       # average overall miss latency
system.cpu.dcache.overall_avg_miss_latency::total 52412.698413                       # average overall miss latency
system.cpu.dcache.blocked_cycles::no_mshrs            0                       # number of cycles access was blocked
system.cpu.dcache.blocked_cycles::no_targets            0                       # number of cycles access was blocked
system.cpu.dcache.blocked::no_mshrs                 0                       # number of cycles access was blocked
system.cpu.dcache.blocked::no_targets               0                       # number of cycles access was blocked
system.cpu.dcache.avg_blocked_cycles::no_mshrs          nan                       # average number of cycles each access was blocked
system.cpu.dcache.avg_blocked_cycles::no_targets          nan                       # average number of cycles each access was blocked
system.cpu.dcache.writebacks::.writebacks            1                       # number of writebacks
system.cpu.dcache.writebacks::total                 1                       # number of writebacks
system.cpu.dcache.demand_mshr_hits::.cpu.data           57                       # number of demand (read+write) MSHR hits
system.cpu.dcache.demand_mshr_hits::total           57                       # number of demand (read+write) MSHR hits
system.cpu.dcache.overall_mshr_hits::.cpu.data           57                       # number of overall MSHR hits
system.cpu.dcache.overall_mshr_hits::total           57                       # number of overall MSHR hits
system.cpu.dcache.demand_mshr_misses::.cpu.data          181                       # number of demand (read+write) MSHR misses
system.cpu.dcache.demand_mshr_misses::total          181                       # number of demand (read+write) MSHR misses
system.cpu.dcache.overall_mshr_misses::.cpu.data          191                       # number of overall MSHR misses
system.cpu.dcache.overall_mshr_misses::total          191                       # number of overall MSHR misses
system.cpu.dcache.demand_mshr_miss_latency::.cpu.data      9836000                       # number of demand (read+write) MSHR miss cycles
system.cpu.dcache.demand_mshr_miss_latency::total      9836000                       # number of demand (read+write) MSHR miss cycles
system.cpu.dcache.overall_mshr_miss_latency::.cpu.data     10392500                       # number of overall MSHR miss cycles
system.cpu.dcache.overall_mshr_miss_latency::total     10392500                       # number of overall MSHR miss cycles
system.cpu.dcache.demand_mshr_miss_rate::.cpu.data     0.013301                       # mshr miss rate for demand accesses
system.cpu.dcache.demand_mshr_miss_rate::total     0.013301                       # mshr miss rate for demand accesses
system.cpu.dcache.overall_mshr_miss_rate::.cpu.data     0.013993                       # mshr miss rate for overall accesses
system.cpu.dcache.overall_mshr_miss_rate::total     0.013993                       # mshr miss rate for overall accesses
system.cpu.dcache.demand_avg_mshr_miss_latency::.cpu.data 54342.541436                       # average overall mshr miss latency
system.cpu.dcache.demand_avg_mshr_miss_latency::total 54342.541436                       # average overall mshr miss latency
system.cpu.dcache.overall_avg_mshr_miss_latency::.cpu.data 54410.994764                       # average overall mshr miss latency
system.cpu.dcache.overall_avg_mshr_miss_latency::total 54410.994764                       # average overall mshr miss latency
system.cpu.dcache.replacements                      4                       # number of replacements
system.cpu.dcache.ReadReq_hits::.cpu.data         7264                       # number of ReadReq hits
system.cpu.dcache.ReadReq_hits::total            7264                       # number of ReadReq hits
system.cpu.dcache.ReadReq_misses::.cpu.data          113                       # number of ReadReq misses
system.cpu.dcache.ReadReq_misses::total           113                       # number of ReadReq misses
system.cpu.dcache.ReadReq_miss_latency::.cpu.data      6445000                       # number of ReadReq miss cycles
system.cpu.dcache.ReadReq_miss_latency::total      6445000                       # number of ReadReq miss cycles
system.cpu.dcache.ReadReq_accesses::.cpu.data         7377                       # number of ReadReq accesses(hits+misses)
system.cpu.dcache.ReadReq_accesses::total         7377                       # number of ReadReq accesses(hits+misses)
system.cpu.dcache.ReadReq_miss_rate::.cpu.data     0.015318                       # miss rate for ReadReq accesses
system.cpu.dcache.ReadReq_miss_rate::total     0.015318                       # miss rate for ReadReq accesses
system.cpu.dcache.ReadReq_avg_miss_latency::.cpu.data 57035.398230                       # average ReadReq miss latency
system.cpu.dcache.ReadReq_avg_miss_latency::total 57035.398230                       # average ReadReq miss latency
system.cpu.dcache.ReadReq_mshr_hits::.cpu.data            8                       # number of ReadReq MSHR hits
system.cpu.dcache.ReadReq_mshr_hits::total            8                       # number of ReadReq MSHR hits
system.cpu.dcache.ReadReq_mshr_misses::.cpu.data          105                       # number of ReadReq MSHR misses
system.cpu.dcache.ReadReq_mshr_misses::total          105                       # number of ReadReq MSHR misses
system.cpu.dcache.ReadReq_mshr_miss_latency::.cpu.data      5801000                       # number of ReadReq MSHR miss cycles
system.cpu.dcache.ReadReq_mshr_miss_latency::total      5801000                       # number of ReadReq MSHR miss cycles
system.cpu.dcache.ReadReq_mshr_miss_rate::.cpu.data     0.014233                       # mshr miss rate for ReadReq accesses
system.cpu.dcache.ReadReq_mshr_miss_rate::total     0.014233                       # mshr miss rate for ReadReq accesses
system.cpu.dcache.ReadReq_avg_mshr_miss_latency::.cpu.data 55247.619048                       # average ReadReq mshr miss latency
system.cpu.dcache.ReadReq_avg_mshr_miss_latency::total 55247.619048                       # average ReadReq mshr miss latency
system.cpu.dcache.WriteReq_hits::.cpu.data         6106                       # number of WriteReq hits
system.cpu.dcache.WriteReq_hits::total           6106                       # number of WriteReq hits
system.cpu.dcache.WriteReq_misses::.cpu.data          125                       # number of WriteReq misses
system.cpu.dcache.WriteReq_misses::total          125                       # number of WriteReq misses
system.cpu.dcache.WriteReq_miss_latency::.cpu.data      6763000                       # number of WriteReq miss cycles
system.cpu.dcache.WriteReq_miss_latency::total      6763000                       # number of WriteReq miss cycles
system.cpu.dcache.WriteReq_accesses::.cpu.data         6231                       # number of WriteReq accesses(hits+misses)
system.cpu.dcache.WriteReq_accesses::total         6231                       # number of WriteReq accesses(hits+misses)
system.cpu.dcache.WriteReq_miss_rate::.cpu.data     0.020061                       # miss rate for WriteReq accesses
system.cpu.dcache.WriteReq_miss_rate::total     0.020061                       # miss rate for WriteReq accesses
system.cpu.dcache.WriteReq_avg_miss_latency::.cpu.data        54104                       # average WriteReq miss latency
system.cpu.dcache.WriteReq_avg_miss_latency::total        54104                       # average WriteReq miss latency
system.cpu.dcache.WriteReq_mshr_hits::.cpu.data           49                       # number of WriteReq MSHR hits
system.cpu.dcache.WriteReq_mshr_hits::total           49                       # number of WriteReq MSHR hits
system.cpu.dcache.WriteReq_mshr_misses::.cpu.data           76                       # number of WriteReq MSHR misses
system.cpu.dcache.WriteReq_mshr_misses::total           76                       # number of WriteReq MSHR misses
system.cpu.dcache.WriteReq_mshr_miss_latency::.cpu.data      4035000                       # number of WriteReq MSHR miss cycles
system.cpu.dcache.WriteReq_mshr_miss_latency::total      4035000                       # number of WriteReq MSHR miss cycles
system.cpu.dcache.WriteReq_mshr_miss_rate::.cpu.data     0.012197                       # mshr miss rate for WriteReq accesses
system.cpu.dcache.WriteReq_mshr_miss_rate::total     0.012197                       # mshr miss rate for WriteReq accesses
system.cpu.dcache.WriteReq_avg_mshr_miss_latency::.cpu.data 53092.105263                       # average WriteReq mshr miss latency
system.cpu.dcache.WriteReq_avg_mshr_miss_latency::total 53092.105263                       # average WriteReq mshr miss latency
system.cpu.dcache.SoftPFReq_hits::.cpu.data           28                       # number of SoftPFReq hits
system.cpu.dcache.SoftPFReq_hits::total            28                       # number of SoftPFReq hits
system.cpu.dcache.SoftPFReq_misses::.cpu.data           14                       # number of SoftPFReq misses
system.cpu.dcache.SoftPFReq_misses::total           14                       # number of SoftPFReq misses
system.cpu.dcache.SoftPFReq_accesses::.cpu.data           42                       # number of SoftPFReq accesses(hits+misses)
system.cpu.dcache.SoftPFReq_accesses::total           42                       # number of SoftPFReq accesses(hits+misses)
system.cpu.dcache.SoftPFReq_miss_rate::.cpu.data     0.333333                       # miss rate for SoftPFReq accesses
system.cpu.dcache.SoftPFReq_miss_rate::total     0.333333                       # miss rate for SoftPFReq accesses
system.cpu.dcache.SoftPFReq_mshr_misses::.cpu.data           10                       # number of SoftPFReq MSHR misses
system.cpu.dcache.SoftPFReq_mshr_misses::total           10                       # number of SoftPFReq MSHR misses
system.cpu.dcache.SoftPFReq_mshr_miss_latency::.cpu.data       556500                       # number of SoftPFReq MSHR miss cycles
system.cpu.dcache.SoftPFReq_mshr_miss_latency::total       556500                       # number of SoftPFReq MSHR miss cycles
system.cpu.dcache.SoftPFReq_mshr_miss_rate::.cpu.data     0.238095                       # mshr miss rate for SoftPFReq accesses
system.cpu.dcache.SoftPFReq_mshr_miss_rate::total     0.238095                       # mshr miss rate for SoftPFReq accesses
system.cpu.dcache.SoftPFReq_avg_mshr_miss_latency::.cpu.data        55650                       # average SoftPFReq mshr miss latency
system.cpu.dcache.SoftPFReq_avg_mshr_miss_latency::total        55650                       # average SoftPFReq mshr miss latency
system.cpu.dcache.LoadLockedReq_hits::.cpu.data           79                       # number of LoadLockedReq hits
system.cpu.dcache.LoadLockedReq_hits::total           79                       # number of LoadLockedReq hits
system.cpu.dcache.LoadLockedReq_misses::.cpu.data            1                       # number of LoadLockedReq misses
system.cpu.dcache.LoadLockedReq_misses::total            1                       # number of LoadLockedReq misses
system.cpu.dcache.LoadLockedReq_miss_latency::.cpu.data        48000                       # number of LoadLockedReq miss cycles
system.cpu.dcache.LoadLockedReq_miss_latency::total        48000                       # number of LoadLockedReq miss cycles
system.cpu.dcache.LoadLockedReq_accesses::.cpu.data           80                       # number of LoadLockedReq accesses(hits+misses)
system.cpu.dcache.LoadLockedReq_accesses::total           80                       # number of LoadLockedReq accesses(hits+misses)
system.cpu.dcache.LoadLockedReq_miss_rate::.cpu.data     0.012500                       # miss rate for LoadLockedReq accesses
system.cpu.dcache.LoadLockedReq_miss_rate::total     0.012500                       # miss rate for LoadLockedReq accesses
system.cpu.dcache.LoadLockedReq_avg_miss_latency::.cpu.data        48000                       # average LoadLockedReq miss latency
system.cpu.dcache.LoadLockedReq_avg_miss_latency::total        48000                       # average LoadLockedReq miss latency
system.cpu.dcache.LoadLockedReq_mshr_misses::.cpu.data            1                       # number of LoadLockedReq MSHR misses
system.cpu.dcache.LoadLockedReq_mshr_misses::total            1                       # number of LoadLockedReq MSHR misses
system.cpu.dcache.LoadLockedReq_mshr_miss_latency::.cpu.data        46000                       # number of LoadLockedReq MSHR miss cycles
system.cpu.dcache.LoadLockedReq_mshr_miss_latency::total        46000                       # number of LoadLockedReq MSHR miss cycles
system.cpu.dcache.LoadLockedReq_mshr_miss_rate::.cpu.data     0.012500                       # mshr miss rate for LoadLockedReq accesses
system.cpu.dcache.LoadLockedReq_mshr_miss_rate::total     0.012500                       # mshr miss rate for LoadLockedReq accesses
system.cpu.dcache.LoadLockedReq_avg_mshr_miss_latency::.cpu.data        46000                       # average LoadLockedReq mshr miss latency
system.cpu.dcache.LoadLockedReq_avg_mshr_miss_latency::total        46000                       # average LoadLockedReq mshr miss latency
system.cpu.dcache.StoreCondReq_hits::.cpu.data           80                       # number of StoreCondReq hits
system.cpu.dcache.StoreCondReq_hits::total           80                       # number of StoreCondReq hits
system.cpu.dcache.StoreCondReq_accesses::.cpu.data           80                       # number of StoreCondReq accesses(hits+misses)
system.cpu.dcache.StoreCondReq_accesses::total           80                       # number of StoreCondReq accesses(hits+misses)
system.cpu.dcache.power_state.pwrStateResidencyTicks::UNDEFINED     76265000                       # Cumulative time (in ticks) in various power states
system.cpu.dcache.tags.tagsinuse           133.914005                       # Cycle average of tags in use
system.cpu.dcache.tags.total_refs               13749                       # Total number of references to valid blocks.
system.cpu.dcache.tags.sampled_refs               192                       # Sample count of references to valid blocks.
system.cpu.dcache.tags.avg_refs             71.609375                       # Average number of references to valid blocks.
system.cpu.dcache.tags.warmup_cycle            139500                       # Cycle when the warmup percentage was hit.
system.cpu.dcache.tags.occ_blocks::.cpu.data   133.914005                       # Average occupied blocks per requestor
system.cpu.dcache.tags.occ_percent::.cpu.data     0.130775                       # Average percentage of cache occupancy
system.cpu.dcache.tags.occ_percent::total     0.130775                       # Average percentage of cache occupancy
system.cpu.dcache.tags.occ_task_id_blocks::1024          188                       # Occupied blocks per task id
system.cpu.dcache.tags.age_task_id_blocks_1024::0           15                       # Occupied blocks per task id
system.cpu.dcache.tags.age_task_id_blocks_1024::1          173                       # Occupied blocks per task id
system.cpu.dcache.tags.occ_task_id_percent::1024     0.183594                       # Percentage of cache occupancy per task id
system.cpu.dcache.tags.tag_accesses             27812                       # Number of tag accesses
system.cpu.dcache.tags.data_accesses            27812                       # Number of data accesses
system.cpu.dcache.tags.power_state.pwrStateResidencyTicks::UNDEFINED     76265000                       # Cumulative time (in ticks) in various power states
system.cpu.dtb.instHits                             0                       # ITB inst hits
system.cpu.dtb.instMisses                           0                       # ITB inst misses
system.cpu.dtb.readHits                             0                       # DTB read hits
system.cpu.dtb.readMisses                           0                       # DTB read misses
system.cpu.dtb.writeHits                            0                       # DTB write hits
system.cpu.dtb.writeMisses                          0                       # DTB write misses
system.cpu.dtb.inserts                              0                       # Number of times an entry is inserted into the TLB
system.cpu.dtb.flushTlb                             0                       # Number of times complete TLB was flushed
system.cpu.dtb.flushTlbMva                          0                       # Number of times TLB was flushed by MVA
system.cpu.dtb.flushTlbMvaAsid                      0                       # Number of times TLB was flushed by MVA & ASID
system.cpu.dtb.flushTlbAsid                         0                       # Number of times TLB was flushed by ASID
system.cpu.dtb.flushedEntries                       0                       # Number of entries that have been flushed from TLB
system.cpu.dtb.alignFaults                          0                       # Number of TLB faults due to alignment restrictions
system.cpu.dtb.prefetchFaults                       0                       # Number of TLB faults due to prefetch
system.cpu.dtb.domainFaults                         0                       # Number of TLB faults due to domain restrictions
system.cpu.dtb.permsFaults                          0                       # Number of TLB faults due to permissions restrictions
system.cpu.dtb.readAccesses                         0                       # DTB read accesses
system.cpu.dtb.writeAccesses                        0                       # DTB write accesses
system.cpu.dtb.instAccesses                         0                       # ITB inst accesses
system.cpu.dtb.hits                                 0                       # Total TLB (inst and data) hits
system.cpu.dtb.misses                               0                       # Total TLB (inst and data) misses
system.cpu.dtb.accesses                             0                       # Total TLB (inst and data) accesses
system.cpu.dtb.stage2_mmu.stage2_tlb.instHits            0                       # ITB inst hits
system.cpu.dtb.stage2_mmu.stage2_tlb.instMisses            0                       # ITB inst misses
system.cpu.dtb.stage2_mmu.stage2_tlb.readHits            0                       # DTB read hits
system.cpu.dtb.stage2_mmu.stage2_tlb.readMisses            0                       # DTB read misses
system.cpu.dtb.stage2_mmu.stage2_tlb.writeHits            0                       # DTB write hits
system.cpu.dtb.stage2_mmu.stage2_tlb.writeMisses            0                       # DTB write misses
system.cpu.dtb.stage2_mmu.stage2_tlb.inserts            0                       # Number of times an entry is inserted into the TLB
system.cpu.dtb.stage2_mmu.stage2_tlb.flushTlb            0                       # Number of times complete TLB was flushed
system.cpu.dtb.stage2_mmu.stage2_tlb.flushTlbMva            0                       # Number of times TLB was flushed by MVA
system.cpu.dtb.stage2_mmu.stage2_tlb.flushTlbMvaAsid            0                       # Number of times TLB was flushed by MVA & ASID
system.cpu.dtb.stage2_mmu.stage2_tlb.flushTlbAsid            0                       # Number of times TLB was flushed by ASID
system.cpu.dtb.stage2_mmu.stage2_tlb.flushedEntries            0                       # Number of entries that have been flushed from TLB
system.cpu.dtb.stage2_mmu.stage2_tlb.alignFaults            0                       # Number of TLB faults due to alignment restrictions
system.cpu.dtb.stage2_mmu.stage2_tlb.prefetchFaults            0                       # Number of TLB faults due to prefetch
system.cpu.dtb.stage2_mmu.stage2_tlb.domainFaults            0                       # Number of TLB faults due to domain restrictions
system.cpu.dtb.stage2_mmu.stage2_tlb.permsFaults            0                       # Number of TLB faults due to permissions restrictions
system.cpu.dtb.stage2_mmu.stage2_tlb.readAccesses            0                       # DTB read accesses
system.cpu.dtb.stage2_mmu.stage2_tlb.writeAccesses            0                       # DTB write accesses
system.cpu.dtb.stage2_mmu.stage2_tlb.instAccesses            0                       # ITB inst accesses
system.cpu.dtb.stage2_mmu.stage2_tlb.hits            0                       # Total TLB (inst and data) hits
system.cpu.dtb.stage2_mmu.stage2_tlb.misses            0                       # Total TLB (inst and data) misses
system.cpu.dtb.stage2_mmu.stage2_tlb.accesses            0                       # Total TLB (inst and data) accesses
system.cpu.dtb.stage2_mmu.stage2_tlb.walker.walks            0                       # Table walker walks requested
system.cpu.dtb.stage2_mmu.stage2_tlb.walker.requestOrigin_Requested::Data            0                       # Table walker requests started/completed, data/inst
system.cpu.dtb.stage2_mmu.stage2_tlb.walker.requestOrigin_Requested::Inst            0                       # Table walker requests started/completed, data/inst
system.cpu.dtb.stage2_mmu.stage2_tlb.walker.requestOrigin_Requested::total            0                       # Table walker requests started/completed, data/inst
system.cpu.dtb.stage2_mmu.stage2_tlb.walker.requestOrigin_Completed::Data            0                       # Table walker requests started/completed, data/inst
system.cpu.dtb.stage2_mmu.stage2_tlb.walker.requestOrigin_Completed::Inst            0                       # Table walker requests started/completed, data/inst
system.cpu.dtb.stage2_mmu.stage2_tlb.walker.requestOrigin_Completed::total            0                       # Table walker requests started/completed, data/inst
system.cpu.dtb.stage2_mmu.stage2_tlb.walker.requestOrigin::total            0                       # Table walker requests started/completed, data/inst
system.cpu.dtb.stage2_mmu.stage2_tlb.walker.power_state.pwrStateResidencyTicks::UNDEFINED     76265000                       # Cumulative time (in ticks) in various power states
system.cpu.dtb.walker.walks                         0                       # Table walker walks requested
system.cpu.dtb.walker.requestOrigin_Requested::Data            0                       # Table walker requests started/completed, data/inst
system.cpu.dtb.walker.requestOrigin_Requested::Inst            0                       # Table walker requests started/completed, data/inst
system.cpu.dtb.walker.requestOrigin_Requested::total            0                       # Table walker requests started/completed, data/inst
system.cpu.dtb.walker.requestOrigin_Completed::Data            0                       # Table walker requests started/completed, data/inst
system.cpu.dtb.walker.requestOrigin_Completed::Inst            0                       # Table walker requests started/completed, data/inst
system.cpu.dtb.walker.requestOrigin_Completed::total            0                       # Table walker requests started/completed, data/inst
system.cpu.dtb.walker.requestOrigin::total            0                       # Table walker requests started/completed, data/inst
system.cpu.dtb.walker.power_state.pwrStateResidencyTicks::UNDEFINED     76265000                       # Cumulative time (in ticks) in various power states
system.cpu.fetch2.intInstructions               24918                       # Number of integer instructions successfully decoded
system.cpu.fetch2.fpInstructions                    0                       # Number of floating point instructions successfully decoded
system.cpu.fetch2.vecInstructions                   0                       # Number of SIMD instructions successfully decoded
system.cpu.fetch2.loadInstructions               6237                       # Number of memory load instructions successfully decoded
system.cpu.fetch2.storeInstructions              3142                       # Number of memory store instructions successfully decoded
system.cpu.fetch2.amoInstructions                   0                       # Number of memory atomic instructions successfully decoded
system.cpu.icache.demand_hits::.cpu.inst        11373                       # number of demand (read+write) hits
system.cpu.icache.demand_hits::total            11373                       # number of demand (read+write) hits
system.cpu.icache.overall_hits::.cpu.inst        11373                       # number of overall hits
system.cpu.icache.overall_hits::total           11373                       # number of overall hits
system.cpu.icache.demand_misses::.cpu.inst          561                       # number of demand (read+write) misses
system.cpu.icache.demand_misses::total            561                       # number of demand (read+write) misses
system.cpu.icache.overall_misses::.cpu.inst          561                       # number of overall misses
system.cpu.icache.overall_misses::total           561                       # number of overall misses
system.cpu.icache.demand_miss_latency::.cpu.inst     28225000                       # number of demand (read+write) miss cycles
system.cpu.icache.demand_miss_latency::total     28225000                       # number of demand (read+write) miss cycles
system.cpu.icache.overall_miss_latency::.cpu.inst     28225000                       # number of overall miss cycles
system.cpu.icache.overall_miss_latency::total     28225000                       # number of overall miss cycles
system.cpu.icache.demand_accesses::.cpu.inst        11934                       # number of demand (read+write) accesses
system.cpu.icache.demand_accesses::total        11934                       # number of demand (read+write) accesses
system.cpu.icache.overall_accesses::.cpu.inst        11934                       # number of overall (read+write) accesses
system.cpu.icache.overall_accesses::total        11934                       # number of overall (read+write) accesses
system.cpu.icache.demand_miss_rate::.cpu.inst     0.047009                       # miss rate for demand accesses
system.cpu.icache.demand_miss_rate::total     0.047009                       # miss rate for demand accesses
system.cpu.icache.overall_miss_rate::.cpu.inst     0.047009                       # miss rate for overall accesses
system.cpu.icache.overall_miss_rate::total     0.047009                       # miss rate for overall accesses
system.cpu.icache.demand_avg_miss_latency::.cpu.inst 50311.942959                       # average overall miss latency
system.cpu.icache.demand_avg_miss_latency::total 50311.942959                       # average overall miss latency
system.cpu.icache.overall_avg_miss_latency::.cpu.inst 50311.942959                       # average overall miss latency
system.cpu.icache.overall_avg_miss_latency::total 50311.942959                       # average overall miss latency
system.cpu.icache.blocked_cycles::no_mshrs            0                       # number of cycles access was blocked
system.cpu.icache.blocked_cycles::no_targets            0                       # number of cycles access was blocked
system.cpu.icache.blocked::no_mshrs                 0                       # number of cycles access was blocked
system.cpu.icache.blocked::no_targets               0                       # number of cycles access was blocked
system.cpu.icache.avg_blocked_cycles::no_mshrs          nan                       # average number of cycles each access was blocked
system.cpu.icache.avg_blocked_cycles::no_targets          nan                       # average number of cycles each access was blocked
system.cpu.icache.writebacks::.writebacks          236                       # number of writebacks
system.cpu.icache.writebacks::total               236                       # number of writebacks
system.cpu.icache.demand_mshr_misses::.cpu.inst          561                       # number of demand (read+write) MSHR misses
system.cpu.icache.demand_mshr_misses::total          561                       # number of demand (read+write) MSHR misses
system.cpu.icache.overall_mshr_misses::.cpu.inst          561                       # number of overall MSHR misses
system.cpu.icache.overall_mshr_misses::total          561                       # number of overall MSHR misses
system.cpu.icache.demand_mshr_miss_latency::.cpu.inst     27060500                       # number of demand (read+write) MSHR miss cycles
system.cpu.icache.demand_mshr_miss_latency::total     27060500                       # number of demand (read+write) MSHR miss cycles
system.cpu.icache.overall_mshr_miss_latency::.cpu.inst     27060500                       # number of overall MSHR miss cycles
system.cpu.icache.overall_mshr_miss_latency::total     27060500                       # number of overall MSHR miss cycles
system.cpu.icache.demand_mshr_miss_rate::.cpu.inst     0.047009                       # mshr miss rate for demand accesses
system.cpu.icache.demand_mshr_miss_rate::total     0.047009                       # mshr miss rate for demand accesses
system.cpu.icache.overall_mshr_miss_rate::.cpu.inst     0.047009                       # mshr miss rate for overall accesses
system.cpu.icache.overall_mshr_miss_rate::total     0.047009                       # mshr miss rate for overall accesses
system.cpu.icache.demand_avg_mshr_miss_latency::.cpu.inst 48236.185383                       # average overall mshr miss latency
system.cpu.icache.demand_avg_mshr_miss_latency::total 48236.185383                       # average overall mshr miss latency
system.cpu.icache.overall_avg_mshr_miss_latency::.cpu.inst 48236.185383                       # average overall mshr miss latency
system.cpu.icache.overall_avg_mshr_miss_latency::total 48236.185383                       # average overall mshr miss latency
system.cpu.icache.replacements                    236                       # number of replacements
system.cpu.icache.ReadReq_hits::.cpu.inst        11373                       # number of ReadReq hits
system.cpu.icache.ReadReq_hits::total           11373                       # number of ReadReq hits
system.cpu.icache.ReadReq_misses::.cpu.inst          561                       # number of ReadReq misses
system.cpu.icache.ReadReq_misses::total           561                       # number of ReadReq misses
system.cpu.icache.ReadReq_miss_latency::.cpu.inst     28225000                       # number of ReadReq miss cycles
system.cpu.icache.ReadReq_miss_latency::total     28225000                       # number of ReadReq miss cycles
system.cpu.icache.ReadReq_accesses::.cpu.inst        11934                       # number of ReadReq accesses(hits+misses)
system.cpu.icache.ReadReq_accesses::total        11934                       # number of ReadReq accesses(hits+misses)
system.cpu.icache.ReadReq_miss_rate::.cpu.inst     0.047009                       # miss rate for ReadReq accesses
system.cpu.icache.ReadReq_miss_rate::total     0.047009                       # miss rate for ReadReq accesses
system.cpu.icache.ReadReq_avg_miss_latency::.cpu.inst 50311.942959                       # average ReadReq miss latency
system.cpu.icache.ReadReq_avg_miss_latency::total 50311.942959                       # average ReadReq miss latency
system.cpu.icache.ReadReq_mshr_misses::.cpu.inst          561                       # number of ReadReq MSHR misses
system.cpu.icache.ReadReq_mshr_misses::total          561                       # number of ReadReq MSHR misses
system.cpu.icache.ReadReq_mshr_miss_latency::.cpu.inst     27060500                       # number of ReadReq MSHR miss cycles
system.cpu.icache.ReadReq_mshr_miss_latency::total     27060500                       # number of ReadReq MSHR miss cycles
system.cpu.icache.ReadReq_mshr_miss_rate::.cpu.inst     0.047009                       # mshr miss rate for ReadReq accesses
system.cpu.icache.ReadReq_mshr_miss_rate::total     0.047009                       # mshr miss rate for ReadReq accesses
system.cpu.icache.ReadReq_avg_mshr_miss_latency::.cpu.inst 48236.185383                       # average ReadReq mshr miss latency
system.cpu.icache.ReadReq_avg_mshr_miss_latency::total 48236.185383                       # average ReadReq mshr miss latency
system.cpu.icache.power_state.pwrStateResidencyTicks::UNDEFINED     76265000                       # Cumulative time (in ticks) in various power states
system.cpu.icache.tags.tagsinuse           223.751958                       # Cycle average of tags in use
system.cpu.icache.tags.total_refs               11934                       # Total number of references to valid blocks.
system.cpu.icache.tags.sampled_refs               561                       # Sample count of references to valid blocks.
system.cpu.icache.tags.avg_refs             21.272727                       # Average number of references to valid blocks.
system.cpu.icache.tags.warmup_cycle             71500                       # Cycle when the warmup percentage was hit.
system.cpu.icache.tags.occ_blocks::.cpu.inst   223.751958                       # Average occupied blocks per requestor
system.cpu.icache.tags.occ_percent::.cpu.inst     0.437016                       # Average percentage of cache occupancy
system.cpu.icache.tags.occ_percent::total     0.437016                       # Average percentage of cache occupancy
system.cpu.icache.tags.occ_task_id_blocks::1024          325                       # Occupied blocks per task id
system.cpu.icache.tags.age_task_id_blocks_1024::0           52                       # Occupied blocks per task id
system.cpu.icache.tags.age_task_id_blocks_1024::1          273                       # Occupied blocks per task id
system.cpu.icache.tags.occ_task_id_percent::1024     0.634766                       # Percentage of cache occupancy per task id
system.cpu.icache.tags.tag_accesses             24429                       # Number of tag accesses
system.cpu.icache.tags.data_accesses            24429                       # Number of data accesses
system.cpu.icache.tags.power_state.pwrStateResidencyTicks::UNDEFINED     76265000                       # Cumulative time (in ticks) in various power states
system.cpu.itb.instHits                             0                       # ITB inst hits
system.cpu.itb.instMisses                           0                       # ITB inst misses
system.cpu.itb.readHits                             0                       # DTB read hits
system.cpu.itb.readMisses                           0                       # DTB read misses
system.cpu.itb.writeHits                            0                       # DTB write hits
system.cpu.itb.writeMisses                          0                       # DTB write misses
system.cpu.itb.inserts                              0                       # Number of times an entry is inserted into the TLB
system.cpu.itb.flushTlb                             0                       # Number of times complete TLB was flushed
system.cpu.itb.flushTlbMva                          0                       # Number of times TLB was flushed by MVA
system.cpu.itb.flushTlbMvaAsid                      0                       # Number of times TLB was flushed by MVA & ASID
system.cpu.itb.flushTlbAsid                         0                       # Number of times TLB was flushed by ASID
system.cpu.itb.flushedEntries                       0                       # Number of entries that have been flushed from TLB
system.cpu.itb.alignFaults                          0                       # Number of TLB faults due to alignment restrictions
system.cpu.itb.prefetchFaults                       0                       # Number of TLB faults due to prefetch
system.cpu.itb.domainFaults                         0                       # Number of TLB faults due to domain restrictions
system.cpu.itb.permsFaults                          0                       # Number of TLB faults due to permissions restrictions
system.cpu.itb.readAccesses                         0                       # DTB read accesses
system.cpu.itb.writeAccesses                        0                       # DTB write accesses
system.cpu.itb.instAccesses                         0                       # ITB inst accesses
system.cpu.itb.hits                                 0                       # Total TLB (inst and data) hits
system.cpu.itb.misses                               0                       # Total TLB (inst and data) misses
system.cpu.itb.accesses                             0                       # Total TLB (inst and data) accesses
system.cpu.itb.stage2_mmu.stage2_tlb.instHits            0                       # ITB inst hits
system.cpu.itb.stage2_mmu.stage2_tlb.instMisses            0                       # ITB inst misses
system.cpu.itb.stage2_mmu.stage2_tlb.readHits            0                       # DTB read hits
system.cpu.itb.stage2_mmu.stage2_tlb.readMisses            0                       # DTB read misses
system.cpu.itb.stage2_mmu.stage2_tlb.writeHits            0                       # DTB write hits
system.cpu.itb.stage2_mmu.stage2_tlb.writeMisses            0                       # DTB write misses
system.cpu.itb.stage2_mmu.stage2_tlb.inserts            0                       # Number of times an entry is inserted into the TLB
system.cpu.itb.stage2_mmu.stage2_tlb.flushTlb            0                       # Number of times complete TLB was flushed
system.cpu.itb.stage2_mmu.stage2_tlb.flushTlbMva            0                       # Number of times TLB was flushed by MVA
system.cpu.itb.stage2_mmu.stage2_tlb.flushTlbMvaAsid            0                       # Number of times TLB was flushed by MVA & ASID
system.cpu.itb.stage2_mmu.stage2_tlb.flushTlbAsid            0                       # Number of times TLB was flushed by ASID
system.cpu.itb.stage2_mmu.stage2_tlb.flushedEntries            0                       # Number of entries that have been flushed from TLB
system.cpu.itb.stage2_mmu.stage2_tlb.alignFaults            0                       # Number of TLB faults due to alignment restrictions
system.cpu.itb.stage2_mmu.stage2_tlb.prefetchFaults            0                       # Number of TLB faults due to prefetch
system.cpu.itb.stage2_mmu.stage2_tlb.domainFaults            0                       # Number of TLB faults due to domain restrictions
system.cpu.itb.stage2_mmu.stage2_tlb.permsFaults            0                       # Number of TLB faults due to permissions restrictions
system.cpu.itb.stage2_mmu.stage2_tlb.readAccesses            0                       # DTB read accesses
system.cpu.itb.stage2_mmu.stage2_tlb.writeAccesses            0                       # DTB write accesses
system.cpu.itb.stage2_mmu.stage2_tlb.instAccesses            0                       # ITB inst accesses
system.cpu.itb.stage2_mmu.stage2_tlb.hits            0                       # Total TLB (inst and data) hits
system.cpu.itb.stage2_mmu.stage2_tlb.misses            0                       # Total TLB (inst and data) misses
system.cpu.itb.stage2_mmu.stage2_tlb.accesses            0                       # Total TLB (inst and data) accesses
system.cpu.itb.stage2_mmu.stage2_tlb.walker.walks            0                       # Table walker walks requested
system.cpu.itb.stage2_mmu.stage2_tlb.walker.requestOrigin_Requested::Data            0                       # Table walker requests started/completed, data/inst
system.cpu.itb.stage2_mmu.stage2_tlb.walker.requestOrigin_Requested::Inst            0                       # Table walker requests started/completed, data/inst
system.cpu.itb.stage2_mmu.stage2_tlb.walker.requestOrigin_Requested::total            0                       # Table walker requests started/completed, data/inst
system.cpu.itb.stage2_mmu.stage2_tlb.walker.requestOrigin_Completed::Data            0                       # Table walker requests started/completed, data/inst
system.cpu.itb.stage2_mmu.stage2_tlb.walker.requestOrigin_Completed::Inst            0                       # Table walker requests started/completed, data/inst
system.cpu.itb.stage2_mmu.stage2_tlb.walker.requestOrigin_Completed::total            0                       # Table walker requests started/completed, data/inst
system.cpu.itb.stage2_mmu.stage2_tlb.walker.requestOrigin::total            0                       # Table walker requests started/completed, data/inst
system.cpu.itb.stage2_mmu.stage2_tlb.walker.power_state.pwrStateResidencyTicks::UNDEFINED     76265000                       # Cumulative time (in ticks) in various power states
system.cpu.itb.walker.walks                         0                       # Table walker walks requested
system.cpu.itb.walker.requestOrigin_Requested::Data            0                       # Table walker requests started/completed, data/inst
system.cpu.itb.walker.requestOrigin_Requested::Inst            0                       # Table walker requests started/completed, data/inst
system.cpu.itb.walker.requestOrigin_Requested::total            0                       # Table walker requests started/completed, data/inst
system.cpu.itb.walker.requestOrigin_Completed::Data            0                       # Table walker requests started/completed, data/inst
system.cpu.itb.walker.requestOrigin_Completed::Inst            0                       # Table walker requests started/completed, data/inst
system.cpu.itb.walker.requestOrigin_Completed::total            0                       # Table walker requests started/completed, data/inst
system.cpu.itb.walker.requestOrigin::total            0                       # Table walker requests started/completed, data/inst
system.cpu.itb.walker.power_state.pwrStateResidencyTicks::UNDEFINED     76265000                       # Cumulative time (in ticks) in various power states
system.cpu.power_state.pwrStateResidencyTicks::ON     76265000                       # Cumulative time (in ticks) in various power states
system.cpu.thread_0.numInsts                    35400                       # Number of Instructions committed
system.cpu.thread_0.numOps                      42239                       # Number of Ops committed
system.cpu.thread_0.numMemRefs                      0                       # Number of Memory References
system.cpu_clk_domain.clock                      1000                       # Clock period in ticks
system.cpu_voltage_domain.voltage                   1                       # Voltage in Volts
system.mem_ctrls.avgPriority_.writebacks::samples       161.00                       # Average QoS priority value for accepted requests
system.mem_ctrls.avgPriority_.cpu.inst::samples       479.00                       # Average QoS priority value for accepted requests
system.mem_ctrls.avgPriority_.cpu.data::samples       192.00                       # Average QoS priority value for accepted requests
system.mem_ctrls.priorityMinLatency      0.000000018750                       # per QoS priority minimum request to response latency (s)
system.mem_ctrls.priorityMaxLatency      0.000047862500                       # per QoS priority maximum request to response latency (s)
system.mem_ctrls.numReadWriteTurnArounds            8                       # Number of turnarounds from READ to WRITE
system.mem_ctrls.numWriteReadTurnArounds            8                       # Number of turnarounds from WRITE to READ
system.mem_ctrls.numStayReadState                1568                       # Number of times bus staying in READ state
system.mem_ctrls.numStayWriteState                122                       # Number of times bus staying in WRITE state
system.mem_ctrls.readReqs                         753                       # Number of read requests accepted
system.mem_ctrls.writeReqs                        221                       # Number of write requests accepted
system.mem_ctrls.readBursts                       753                       # Number of controller read bursts, including those serviced by the write queue
system.mem_ctrls.writeBursts                      221                       # Number of controller write bursts, including those merged in the write queue
system.mem_ctrls.servicedByWrQ                     82                       # Number of controller read bursts serviced by the write queue
system.mem_ctrls.mergedWrBursts                    60                       # Number of controller write bursts merged with an existing one
system.mem_ctrls.neitherReadNorWriteReqs            0                       # Number of requests that are neither read nor write
system.mem_ctrls.avgRdQLen                       1.08                       # Average read queue length when enqueuing
system.mem_ctrls.avgWrQLen                      19.22                       # Average write queue length when enqueuing
system.mem_ctrls.numRdRetry                         0                       # Number of times read queue was full causing retry
system.mem_ctrls.numWrRetry                         0                       # Number of times write queue was full causing retry
system.mem_ctrls.readPktSize::0                     0                       # Read request sizes (log2)
system.mem_ctrls.readPktSize::1                     0                       # Read request sizes (log2)
system.mem_ctrls.readPktSize::2                     0                       # Read request sizes (log2)
system.mem_ctrls.readPktSize::3                     0                       # Read request sizes (log2)
system.mem_ctrls.readPktSize::4                     0                       # Read request sizes (log2)
system.mem_ctrls.readPktSize::5                     0                       # Read request sizes (log2)
system.mem_ctrls.readPktSize::6                   753                       # Read request sizes (log2)
system.mem_ctrls.writePktSize::0                    0                       # Write request sizes (log2)
system.mem_ctrls.writePktSize::1                    0                       # Write request sizes (log2)
system.mem_ctrls.writePktSize::2                    0                       # Write request sizes (log2)
system.mem_ctrls.writePktSize::3                    0                       # Write request sizes (log2)
system.mem_ctrls.writePktSize::4                    0                       # Write request sizes (log2)
system.mem_ctrls.writePktSize::5                    0                       # Write request sizes (log2)
system.mem_ctrls.writePktSize::6                  221                       # Write request sizes (log2)
system.mem_ctrls.rdQLenPdf::0                     573                       # What read queue length does an incoming req see
system.mem_ctrls.rdQLenPdf::1                      92                       # What read queue length does an incoming req see
system.mem_ctrls.rdQLenPdf::2                       6                       # What read queue length does an incoming req see
system.mem_ctrls.rdQLenPdf::3                       0                       # What read queue length does an incoming req see
system.mem_ctrls.rdQLenPdf::4                       0                       # What read queue length does an incoming req see
system.mem_ctrls.rdQLenPdf::5                       0                       # What read queue length does an incoming req see
system.mem_ctrls.rdQLenPdf::6                       0                       # What read queue length does an incoming req see
system.mem_ctrls.rdQLenPdf::7                       0                       # What read queue length does an incoming req see
system.mem_ctrls.rdQLenPdf::8                       0                       # What read queue length does an incoming req see
system.mem_ctrls.rdQLenPdf::9                       0                       # What read queue length does an incoming req see
system.mem_ctrls.rdQLenPdf::10                      0                       # What read queue length does an incoming req see
system.mem_ctrls.rdQLenPdf::11                      0                       # What read queue length does an incoming req see
system.mem_ctrls.rdQLenPdf::12                      0                       # What read queue length does an incoming req see
system.mem_ctrls.rdQLenPdf::13                      0                       # What read queue length does an incoming req see
system.mem_ctrls.rdQLenPdf::14                      0                       # What read queue length does an incoming req see
system.mem_ctrls.rdQLenPdf::15                      0                       # What read queue length does an incoming req see
system.mem_ctrls.rdQLenPdf::16                      0                       # What read queue length does an incoming req see
system.mem_ctrls.rdQLenPdf::17                      0                       # What read queue length does an incoming req see
system.mem_ctrls.rdQLenPdf::18                      0                       # What read queue length does an incoming req see
system.mem_ctrls.rdQLenPdf::19                      0                       # What read queue length does an incoming req see
system.mem_ctrls.rdQLenPdf::20                      0                       # What read queue length does an incoming req see
system.mem_ctrls.rdQLenPdf::21                      0                       # What read queue length does an incoming req see
system.mem_ctrls.rdQLenPdf::22                      0                       # What read queue length does an incoming req see
system.mem_ctrls.rdQLenPdf::23                      0                       # What read queue length does an incoming req see
system.mem_ctrls.rdQLenPdf::24                      0                       # What read queue length does an incoming req see
system.mem_ctrls.rdQLenPdf::25                      0                       # What read queue length does an incoming req see
system.mem_ctrls.rdQLenPdf::26                      0                       # What read queue length does an incoming req see
system.mem_ctrls.rdQLenPdf::27                      0                       # What read queue length does an incoming req see
system.mem_ctrls.rdQLenPdf::28                      0                       # What read queue length does an incoming req see
system.mem_ctrls.rdQLenPdf::29                      0                       # What read queue length does an incoming req see
system.mem_ctrls.rdQLenPdf::30                      0                       # What read queue length does an incoming req see
system.mem_ctrls.rdQLenPdf::31                      0                       # What read queue length does an incoming req see
system.mem_ctrls.wrQLenPdf::0                       1                       # What write queue length does an incoming req see
system.mem_ctrls.wrQLenPdf::1                       1                       # What write queue length does an incoming req see
system.mem_ctrls.wrQLenPdf::2                       1                       # What write queue length does an incoming req see
system.mem_ctrls.wrQLenPdf::3                       1                       # What write queue length does an incoming req see
system.mem_ctrls.wrQLenPdf::4                       1                       # What write queue length does an incoming req see
system.mem_ctrls.wrQLenPdf::5                       1                       # What write queue length does an incoming req see
system.mem_ctrls.wrQLenPdf::6                       1                       # What write queue length does an incoming req see
system.mem_ctrls.wrQLenPdf::7                       1                       # What write queue length does an incoming req see
system.mem_ctrls.wrQLenPdf::8                       1                       # What write queue length does an incoming req see
system.mem_ctrls.wrQLenPdf::9                       1                       # What write queue length does an incoming req see
system.mem_ctrls.wrQLenPdf::10                      1                       # What write queue length does an incoming req see
system.mem_ctrls.wrQLenPdf::11                      1                       # What write queue length does an incoming req see
system.mem_ctrls.wrQLenPdf::12                      1                       # What write queue length does an incoming req see
system.mem_ctrls.wrQLenPdf::13                      1                       # What write queue length does an incoming req see
system.mem_ctrls.wrQLenPdf::14                      1                       # What write queue length does an incoming req see
system.mem_ctrls.wrQLenPdf::15                      2                       # What write queue length does an incoming req see
system.mem_ctrls.wrQLenPdf::16                      2                       # What write queue length does an incoming req see
system.mem_ctrls.wrQLenPdf::17                      9                       # What write queue length does an incoming req see
system.mem_ctrls.wrQLenPdf::18                      9                       # What write queue length does an incoming req see
system.mem_ctrls.wrQLenPdf::19                      9                       # What write queue length does an incoming req see
system.mem_ctrls.wrQLenPdf::20                      9                       # What write queue length does an incoming req see
system.mem_ctrls.wrQLenPdf::21                      9                       # What write queue length does an incoming req see
system.mem_ctrls.wrQLenPdf::22                      9                       # What write queue length does an incoming req see
system.mem_ctrls.wrQLenPdf::23                      9                       # What write queue length does an incoming req see
system.mem_ctrls.wrQLenPdf::24                      9                       # What write queue length does an incoming req see
system.mem_ctrls.wrQLenPdf::25                      9                       # What write queue length does an incoming req see
system.mem_ctrls.wrQLenPdf::26                      9                       # What write queue length does an incoming req see
system.mem_ctrls.wrQLenPdf::27                      9                       # What write queue length does an incoming req see
system.mem_ctrls.wrQLenPdf::28                      9                       # What write queue length does an incoming req see
system.mem_ctrls.wrQLenPdf::29                      9                       # What write queue length does an incoming req see
system.mem_ctrls.wrQLenPdf::30                      9                       # What write queue length does an incoming req see
system.mem_ctrls.wrQLenPdf::31                      8                       # What write queue length does an incoming req see
system.mem_ctrls.wrQLenPdf::32                      8                       # What write queue length does an incoming req see
system.mem_ctrls.wrQLenPdf::33                      0                       # What write queue length does an incoming req see
system.mem_ctrls.wrQLenPdf::34                      0                       # What write queue length does an incoming req see
system.mem_ctrls.wrQLenPdf::35                      0                       # What write queue length does an incoming req see
system.mem_ctrls.wrQLenPdf::36                      0                       # What write queue length does an incoming req see
system.mem_ctrls.wrQLenPdf::37                      0                       # What write queue length does an incoming req see
system.mem_ctrls.wrQLenPdf::38                      0                       # What write queue length does an incoming req see
system.mem_ctrls.wrQLenPdf::39                      0                       # What write queue length does an incoming req see
system.mem_ctrls.wrQLenPdf::40                      0                       # What write queue length does an incoming req see
system.mem_ctrls.wrQLenPdf::41                      0                       # What write queue length does an incoming req see
system.mem_ctrls.wrQLenPdf::42                      0                       # What write queue length does an incoming req see
system.mem_ctrls.wrQLenPdf::43                      0                       # What write queue length does an incoming req see
system.mem_ctrls.wrQLenPdf::44                      0                       # What write queue length does an incoming req see
system.mem_ctrls.wrQLenPdf::45                      0                       # What write queue length does an incoming req see
system.mem_ctrls.wrQLenPdf::46                      0                       # What write queue length does an incoming req see
system.mem_ctrls.wrQLenPdf::47                      0                       # What write queue length does an incoming req see
system.mem_ctrls.wrQLenPdf::48                      0                       # What write queue length does an incoming req see
system.mem_ctrls.wrQLenPdf::49                      0                       # What write queue length does an incoming req see
system.mem_ctrls.wrQLenPdf::50                      0                       # What write queue length does an incoming req see
system.mem_ctrls.wrQLenPdf::51                      0                       # What write queue length does an incoming req see
system.mem_ctrls.wrQLenPdf::52                      0                       # What write queue length does an incoming req see
system.mem_ctrls.wrQLenPdf::53                      0                       # What write queue length does an incoming req see
system.mem_ctrls.wrQLenPdf::54                      0                       # What write queue length does an incoming req see
system.mem_ctrls.wrQLenPdf::55                      0                       # What write queue length does an incoming req see
system.mem_ctrls.wrQLenPdf::56                      0                       # What write queue length does an incoming req see
system.mem_ctrls.wrQLenPdf::57                      0                       # What write queue length does an incoming req see
system.mem_ctrls.wrQLenPdf::58                      0                       # What write queue length does an incoming req see
system.mem_ctrls.wrQLenPdf::59                      0                       # What write queue length does an incoming req see
system.mem_ctrls.wrQLenPdf::60                      0                       # What write queue length does an incoming req see
system.mem_ctrls.wrQLenPdf::61                      0                       # What write queue length does an incoming req see
system.mem_ctrls.wrQLenPdf::62                      0                       # What write queue length does an incoming req see
system.mem_ctrls.wrQLenPdf::63                      0                       # What write queue length does an incoming req see
system.mem_ctrls.rdPerTurnAround::samples            8                       # Reads before turning the bus around for writes
system.mem_ctrls.rdPerTurnAround::mean      78.250000                       # Reads before turning the bus around for writes
system.mem_ctrls.rdPerTurnAround::gmean     47.531850                       # Reads before turning the bus around for writes
system.mem_ctrls.rdPerTurnAround::stdev    118.560111                       # Reads before turning the bus around for writes
system.mem_ctrls.rdPerTurnAround::16-31             2     25.00%     25.00% # Reads before turning the bus around for writes
system.mem_ctrls.rdPerTurnAround::32-47             4     50.00%     75.00% # Reads before turning the bus around for writes
system.mem_ctrls.rdPerTurnAround::48-63             1     12.50%     87.50% # Reads before turning the bus around for writes
system.mem_ctrls.rdPerTurnAround::368-383            1     12.50%    100.00% # Reads before turning the bus around for writes
system.mem_ctrls.rdPerTurnAround::total             8                       # Reads before turning the bus around for writes
system.mem_ctrls.wrPerTurnAround::samples            8                       # Writes before turning the bus around for reads
system.mem_ctrls.wrPerTurnAround::mean      16.250000                       # Writes before turning the bus around for reads
system.mem_ctrls.wrPerTurnAround::gmean     16.237309                       # Writes before turning the bus around for reads
system.mem_ctrls.wrPerTurnAround::stdev      0.707107                       # Writes before turning the bus around for reads
system.mem_ctrls.wrPerTurnAround::16                7     87.50%     87.50% # Writes before turning the bus around for reads
system.mem_ctrls.wrPerTurnAround::18                1     12.50%    100.00% # Writes before turning the bus around for reads
system.mem_ctrls.wrPerTurnAround::total             8                       # Writes before turning the bus around for reads
system.mem_ctrls.bytesReadWrQ                    5248                       # Total number of bytes read from write queue
system.mem_ctrls.bytesReadSys                   48192                       # Total read bytes from the system interface side
system.mem_ctrls.bytesWrittenSys                14144                       # Total written bytes from the system interface side
system.mem_ctrls.avgRdBWSys                    631.90                       # Average system read bandwidth in MiByte/s
system.mem_ctrls.avgWrBWSys                    185.46                       # Average system write bandwidth in MiByte/s
system.mem_ctrls.totGap                      76248000                       # Total gap between requests
system.mem_ctrls.avgGap                      78283.37                       # Average gap between requests
system.mem_ctrls.requestorReadBytes::.cpu.inst        30656                       # Per-requestor bytes read from memory
system.mem_ctrls.requestorReadBytes::.cpu.data        12288                       # Per-requestor bytes read from memory
system.mem_ctrls.requestorWriteBytes::.writebacks         8320                       # Per-requestor bytes write to memory
system.mem_ctrls.requestorReadRate::.cpu.inst 401966826.198124945164                       # Per-requestor bytes read from memory rate (Bytes/sec)
system.mem_ctrls.requestorReadRate::.cpu.data 161122402.150396645069                       # Per-requestor bytes read from memory rate (Bytes/sec)
system.mem_ctrls.requestorWriteRate::.writebacks 109093293.122664391994                       # Per-requestor bytes write to memory rate (Bytes/sec)
system.mem_ctrls.requestorReadAccesses::.cpu.inst          561                       # Per-requestor read serviced memory accesses
system.mem_ctrls.requestorReadAccesses::.cpu.data          192                       # Per-requestor read serviced memory accesses
system.mem_ctrls.requestorWriteAccesses::.writebacks          221                       # Per-requestor write serviced memory accesses
system.mem_ctrls.requestorReadTotalLat::.cpu.inst     12580250                       # Per-requestor read total memory access latency
system.mem_ctrls.requestorReadTotalLat::.cpu.data      5186000                       # Per-requestor read total memory access latency
system.mem_ctrls.requestorWriteTotalLat::.writebacks   1242628750                       # Per-requestor write total memory access latency
system.mem_ctrls.requestorReadAvgLat::.cpu.inst     22424.69                       # Per-requestor read average memory access latency
system.mem_ctrls.requestorReadAvgLat::.cpu.data     27010.42                       # Per-requestor read average memory access latency
system.mem_ctrls.requestorWriteAvgLat::.writebacks   5622754.52                       # Per-requestor write average memory access latency
system.mem_ctrls.dram.bytes_read::.cpu.inst        35904                       # Number of bytes read from this memory
system.mem_ctrls.dram.bytes_read::.cpu.data        12288                       # Number of bytes read from this memory
system.mem_ctrls.dram.bytes_read::total         48192                       # Number of bytes read from this memory
system.mem_ctrls.dram.bytes_inst_read::.cpu.inst        35904                       # Number of instructions bytes read from this memory
system.mem_ctrls.dram.bytes_inst_read::total        35904                       # Number of instructions bytes read from this memory
system.mem_ctrls.dram.bytes_written::.writebacks           64                       # Number of bytes written to this memory
system.mem_ctrls.dram.bytes_written::total           64                       # Number of bytes written to this memory
system.mem_ctrls.dram.num_reads::.cpu.inst          561                       # Number of read requests responded to by this memory
system.mem_ctrls.dram.num_reads::.cpu.data          192                       # Number of read requests responded to by this memory
system.mem_ctrls.dram.num_reads::total            753                       # Number of read requests responded to by this memory
system.mem_ctrls.dram.num_writes::.writebacks            1                       # Number of write requests responded to by this memory
system.mem_ctrls.dram.num_writes::total             1                       # Number of write requests responded to by this memory
system.mem_ctrls.dram.bw_read::.cpu.inst    470779519                       # Total read bandwidth from this memory (bytes/s)
system.mem_ctrls.dram.bw_read::.cpu.data    161122402                       # Total read bandwidth from this memory (bytes/s)
system.mem_ctrls.dram.bw_read::total        631901921                       # Total read bandwidth from this memory (bytes/s)
system.mem_ctrls.dram.bw_inst_read::.cpu.inst    470779519                       # Instruction read bandwidth from this memory (bytes/s)
system.mem_ctrls.dram.bw_inst_read::total    470779519                       # Instruction read bandwidth from this memory (bytes/s)
system.mem_ctrls.dram.bw_write::.writebacks       839179                       # Write bandwidth from this memory (bytes/s)
system.mem_ctrls.dram.bw_write::total          839179                       # Write bandwidth from this memory (bytes/s)
system.mem_ctrls.dram.bw_total::.writebacks       839179                       # Total bandwidth to/from this memory (bytes/s)
system.mem_ctrls.dram.bw_total::.cpu.inst    470779519                       # Total bandwidth to/from this memory (bytes/s)
system.mem_ctrls.dram.bw_total::.cpu.data    161122402                       # Total bandwidth to/from this memory (bytes/s)
system.mem_ctrls.dram.bw_total::total       632741100                       # Total bandwidth to/from this memory (bytes/s)
system.mem_ctrls.dram.readBursts                  671                       # Number of DRAM read bursts
system.mem_ctrls.dram.writeBursts                 130                       # Number of DRAM write bursts
system.mem_ctrls.dram.perBankRdBursts::0           70                       # Per bank write bursts
system.mem_ctrls.dram.perBankRdBursts::1            7                       # Per bank write bursts
system.mem_ctrls.dram.perBankRdBursts::2           44                       # Per bank write bursts
system.mem_ctrls.dram.perBankRdBursts::3           44                       # Per bank write bursts
system.mem_ctrls.dram.perBankRdBursts::4           34                       # Per bank write bursts
system.mem_ctrls.dram.perBankRdBursts::5           26                       # Per bank write bursts
system.mem_ctrls.dram.perBankRdBursts::6           63                       # Per bank write bursts
system.mem_ctrls.dram.perBankRdBursts::7           16                       # Per bank write bursts
system.mem_ctrls.dram.perBankRdBursts::8          110                       # Per bank write bursts
system.mem_ctrls.dram.perBankRdBursts::9           82                       # Per bank write bursts
system.mem_ctrls.dram.perBankRdBursts::10           48                       # Per bank write bursts
system.mem_ctrls.dram.perBankRdBursts::11           58                       # Per bank write bursts
system.mem_ctrls.dram.perBankRdBursts::12           44                       # Per bank write bursts
system.mem_ctrls.dram.perBankRdBursts::13           14                       # Per bank write bursts
system.mem_ctrls.dram.perBankRdBursts::14           10                       # Per bank write bursts
system.mem_ctrls.dram.perBankRdBursts::15            1                       # Per bank write bursts
system.mem_ctrls.dram.perBankWrBursts::0           28                       # Per bank write bursts
system.mem_ctrls.dram.perBankWrBursts::1            0                       # Per bank write bursts
system.mem_ctrls.dram.perBankWrBursts::2           14                       # Per bank write bursts
system.mem_ctrls.dram.perBankWrBursts::3            0                       # Per bank write bursts
system.mem_ctrls.dram.perBankWrBursts::4            4                       # Per bank write bursts
system.mem_ctrls.dram.perBankWrBursts::5            3                       # Per bank write bursts
system.mem_ctrls.dram.perBankWrBursts::6            2                       # Per bank write bursts
system.mem_ctrls.dram.perBankWrBursts::7            2                       # Per bank write bursts
system.mem_ctrls.dram.perBankWrBursts::8           33                       # Per bank write bursts
system.mem_ctrls.dram.perBankWrBursts::9            4                       # Per bank write bursts
system.mem_ctrls.dram.perBankWrBursts::10            7                       # Per bank write bursts
system.mem_ctrls.dram.perBankWrBursts::11           11                       # Per bank write bursts
system.mem_ctrls.dram.perBankWrBursts::12           22                       # Per bank write bursts
system.mem_ctrls.dram.perBankWrBursts::13            0                       # Per bank write bursts
system.mem_ctrls.dram.perBankWrBursts::14            0                       # Per bank write bursts
system.mem_ctrls.dram.perBankWrBursts::15            0                       # Per bank write bursts
system.mem_ctrls.dram.totQLat                 5185000                       # Total ticks spent queuing
system.mem_ctrls.dram.totBusLat               3355000                       # Total ticks spent in databus transfers
system.mem_ctrls.dram.totMemAccLat           17766250                       # Total ticks spent from burst creation until serviced by the DRAM
system.mem_ctrls.dram.avgQLat                 7727.27                       # Average queueing delay per DRAM burst
system.mem_ctrls.dram.avgBusLat               5000.00                       # Average bus latency per DRAM burst
system.mem_ctrls.dram.avgMemAccLat           26477.27                       # Average memory access latency per DRAM burst
system.mem_ctrls.dram.readRowHits                 533                       # Number of row buffer hits during reads
system.mem_ctrls.dram.writeRowHits                100                       # Number of row buffer hits during writes
system.mem_ctrls.dram.readRowHitRate            79.43                       # Row buffer hit rate for reads
system.mem_ctrls.dram.writeRowHitRate           76.92                       # Row buffer hit rate for writes
system.mem_ctrls.dram.bytesPerActivate::samples          158                       # Bytes accessed per row activation
system.mem_ctrls.dram.bytesPerActivate::mean   302.177215                       # Bytes accessed per row activation
system.mem_ctrls.dram.bytesPerActivate::gmean   199.796672                       # Bytes accessed per row activation
system.mem_ctrls.dram.bytesPerActivate::stdev   290.816937                       # Bytes accessed per row activation
system.mem_ctrls.dram.bytesPerActivate::0-127           40     25.32%     25.32% # Bytes accessed per row activation
system.mem_ctrls.dram.bytesPerActivate::128-255           49     31.01%     56.33% # Bytes accessed per row activation
system.mem_ctrls.dram.bytesPerActivate::256-383           27     17.09%     73.42% # Bytes accessed per row activation
system.mem_ctrls.dram.bytesPerActivate::384-511            9      5.70%     79.11% # Bytes accessed per row activation
system.mem_ctrls.dram.bytesPerActivate::512-639            8      5.06%     84.18% # Bytes accessed per row activation
system.mem_ctrls.dram.bytesPerActivate::640-767            6      3.80%     87.97% # Bytes accessed per row activation
system.mem_ctrls.dram.bytesPerActivate::768-895            5      3.16%     91.14% # Bytes accessed per row activation
system.mem_ctrls.dram.bytesPerActivate::896-1023            1      0.63%     91.77% # Bytes accessed per row activation
system.mem_ctrls.dram.bytesPerActivate::1024-1151           13      8.23%    100.00% # Bytes accessed per row activation
system.mem_ctrls.dram.bytesPerActivate::total          158                       # Bytes accessed per row activation
system.mem_ctrls.dram.bytesRead                 42944                       # Total number of bytes read from DRAM
system.mem_ctrls.dram.bytesWritten               8320                       # Total number of bytes written to DRAM
system.mem_ctrls.dram.avgRdBW              563.089228                       # Average DRAM read bandwidth in MiBytes/s
system.mem_ctrls.dram.avgWrBW              109.093293                       # Average DRAM write bandwidth in MiBytes/s
system.mem_ctrls.dram.peakBW                 12800.00                       # Theoretical peak bandwidth in MiByte/s
system.mem_ctrls.dram.busUtil                    5.25                       # Data bus utilization in percentage
system.mem_ctrls.dram.busUtilRead                4.40                       # Data bus utilization in percentage for reads
system.mem_ctrls.dram.busUtilWrite               0.85                       # Data bus utilization in percentage for writes
system.mem_ctrls.dram.pageHitRate               79.03                       # Row buffer hit rate, read and write combined
system.mem_ctrls.dram.power_state.pwrStateResidencyTicks::UNDEFINED     76265000                       # Cumulative time (in ticks) in various power states
system.mem_ctrls.dram.rank0.actEnergy          442680                       # Energy for activate commands per rank (pJ)
system.mem_ctrls.dram.rank0.preEnergy          216315                       # Energy for precharge commands per rank (pJ)
system.mem_ctrls.dram.rank0.readEnergy        2170560                       # Energy for read commands per rank (pJ)
system.mem_ctrls.dram.rank0.writeEnergy        276660                       # Energy for write commands per rank (pJ)
system.mem_ctrls.dram.rank0.refreshEnergy 5531760.000000                       # Energy for refresh commands per rank (pJ)
system.mem_ctrls.dram.rank0.actBackEnergy     28907550                       # Energy for active background per rank (pJ)
system.mem_ctrls.dram.rank0.preBackEnergy      4942560                       # Energy for precharge background per rank (pJ)
system.mem_ctrls.dram.rank0.actPowerDownEnergy            0                       # Energy for active power-down per rank (pJ)
system.mem_ctrls.dram.rank0.prePowerDownEnergy            0                       # Energy for precharge power-down per rank (pJ)
system.mem_ctrls.dram.rank0.selfRefreshEnergy            0                       # Energy for self refresh per rank (pJ)
system.mem_ctrls.dram.rank0.totalEnergy      42488085                       # Total energy per rank (pJ)
system.mem_ctrls.dram.rank0.averagePower   557.111191                       # Core power per rank (mW)
system.mem_ctrls.dram.rank0.totalIdleTime            0                       # Total Idle time Per DRAM Rank
system.mem_ctrls.dram.rank0.pwrStateTime::IDLE     12620250                       # Time in different power states
system.mem_ctrls.dram.rank0.pwrStateTime::REF      2340000                       # Time in different power states
system.mem_ctrls.dram.rank0.pwrStateTime::SREF            0                       # Time in different power states
system.mem_ctrls.dram.rank0.pwrStateTime::PRE_PDN            0                       # Time in different power states
system.mem_ctrls.dram.rank0.pwrStateTime::ACT     61304750                       # Time in different power states
system.mem_ctrls.dram.rank0.pwrStateTime::ACT_PDN            0                       # Time in different power states
system.mem_ctrls.dram.rank1.actEnergy          756840                       # Energy for activate commands per rank (pJ)
system.mem_ctrls.dram.rank1.preEnergy          383295                       # Energy for precharge commands per rank (pJ)
system.mem_ctrls.dram.rank1.readEnergy        2620380                       # Energy for read commands per rank (pJ)
system.mem_ctrls.dram.rank1.writeEnergy        401940                       # Energy for write commands per rank (pJ)
system.mem_ctrls.dram.rank1.refreshEnergy 5531760.000000                       # Energy for refresh commands per rank (pJ)
system.mem_ctrls.dram.rank1.actBackEnergy     26478210                       # Energy for active background per rank (pJ)
system.mem_ctrls.dram.rank1.preBackEnergy      6988320                       # Energy for precharge background per rank (pJ)
system.mem_ctrls.dram.rank1.actPowerDownEnergy            0                       # Energy for active power-down per rank (pJ)
system.mem_ctrls.dram.rank1.prePowerDownEnergy            0                       # Energy for precharge power-down per rank (pJ)
system.mem_ctrls.dram.rank1.selfRefreshEnergy            0                       # Energy for self refresh per rank (pJ)
system.mem_ctrls.dram.rank1.totalEnergy      43160745                       # Total energy per rank (pJ)
system.mem_ctrls.dram.rank1.averagePower   565.931227                       # Core power per rank (mW)
system.mem_ctrls.dram.rank1.totalIdleTime            0                       # Total Idle time Per DRAM Rank
system.mem_ctrls.dram.rank1.pwrStateTime::IDLE     17933500                       # Time in different power states
system.mem_ctrls.dram.rank1.pwrStateTime::REF      2340000                       # Time in different power states
system.mem_ctrls.dram.rank1.pwrStateTime::SREF            0                       # Time in different power states
system.mem_ctrls.dram.rank1.pwrStateTime::PRE_PDN            0                       # Time in different power states
system.mem_ctrls.dram.rank1.pwrStateTime::ACT     55991500                       # Time in different power states
system.mem_ctrls.dram.rank1.pwrStateTime::ACT_PDN            0                       # Time in different power states
system.mem_ctrls.power_state.pwrStateResidencyTicks::UNDEFINED     76265000                       # Cumulative time (in ticks) in various power states
system.membus.trans_dist::ReadResp                677                       # Transaction distribution
system.membus.trans_dist::WritebackDirty            1                       # Transaction distribution
system.membus.trans_dist::WritebackClean          236                       # Transaction distribution
system.membus.trans_dist::CleanEvict                3                       # Transaction distribution
system.membus.trans_dist::ReadExReq                76                       # Transaction distribution
system.membus.trans_dist::ReadExResp               76                       # Transaction distribution
system.membus.trans_dist::ReadCleanReq            561                       # Transaction distribution
system.membus.trans_dist::ReadSharedReq           116                       # Transaction distribution
system.membus.pkt_count_system.cpu.icache.mem_side_port::system.mem_ctrls.port         1358                       # Packet count per connected requestor and responder (bytes)
system.membus.pkt_count_system.cpu.dcache.mem_side_port::system.mem_ctrls.port          388                       # Packet count per connected requestor and responder (bytes)
system.membus.pkt_count::total                   1746                       # Packet count per connected requestor and responder (bytes)
system.membus.pkt_size_system.cpu.icache.mem_side_port::system.mem_ctrls.port        51008                       # Cumulative packet size per connected requestor and responder (bytes)
system.membus.pkt_size_system.cpu.dcache.mem_side_port::system.mem_ctrls.port        12352                       # Cumulative packet size per connected requestor and responder (bytes)
system.membus.pkt_size::total                   63360                       # Cumulative packet size per connected requestor and responder (bytes)
system.membus.snoops                                0                       # Total snoops (count)
system.membus.snoopTraffic                          0                       # Total snoop traffic (bytes)
system.membus.snoop_fanout::samples               753                       # Request fanout histogram
system.membus.snoop_fanout::mean             0.050465                       # Request fanout histogram
system.membus.snoop_fanout::stdev            0.219048                       # Request fanout histogram
system.membus.snoop_fanout::underflows              0      0.00%      0.00% # Request fanout histogram
system.membus.snoop_fanout::0                     715     94.95%     94.95% # Request fanout histogram
system.membus.snoop_fanout::1                      38      5.05%    100.00% # Request fanout histogram
system.membus.snoop_fanout::2                       0      0.00%    100.00% # Request fanout histogram
system.membus.snoop_fanout::overflows               0      0.00%    100.00% # Request fanout histogram
system.membus.snoop_fanout::min_value               0                       # Request fanout histogram
system.membus.snoop_fanout::max_value               1                       # Request fanout histogram
system.membus.snoop_fanout::total                 753                       # Request fanout histogram
system.membus.power_state.pwrStateResidencyTicks::UNDEFINED     76265000                       # Cumulative time (in ticks) in various power states
system.membus.reqLayer0.occupancy              970500                       # Layer occupancy (ticks)
system.membus.reqLayer0.utilization               1.3                       # Layer utilization (%)
system.membus.respLayer1.occupancy            1507250                       # Layer occupancy (ticks)
system.membus.respLayer1.utilization              2.0                       # Layer utilization (%)
system.membus.respLayer2.occupancy             519500                       # Layer occupancy (ticks)
system.membus.respLayer2.utilization              0.7                       # Layer utilization (%)
system.voltage_domain.voltage                       1                       # Voltage in Volts

---------- End Simulation Statistics   ----------
