
---------- Begin Simulation Statistics ----------
final_tick                                   86666000                       # Number of ticks from beginning of simulation (restored from checkpoints and never reset)
host_inst_rate                                 147086                       # Simulator instruction rate (inst/s)
host_mem_usage                                 716120                       # Number of bytes of host memory used
host_op_rate                                   164393                       # Simulator op (including micro ops) rate (op/s)
host_seconds                                     0.11                       # Real time elapsed on the host
host_tick_rate                              824238215                       # Simulator tick rate (ticks/s)
sim_freq                                 1000000000000                       # Frequency of simulated ticks
sim_insts                                       15426                       # Number of instructions simulated
sim_ops                                         17266                       # Number of ops (including micro ops) simulated
sim_seconds                                  0.000087                       # Number of seconds simulated
sim_ticks                                    86666000                       # Number of ticks simulated
system.cpu.committedInsts                       15426                       # Number of instructions committed
system.cpu.committedOps                         17266                       # Number of ops (including micro ops) committed
system.cpu.cpi                               5.618177                       # CPI: cycles per instruction
system.cpu.discardedOps                          2727                       # Number of ops (including micro ops) which were discarded before commit
system.cpu.idleCycles                           58906                       # Total number of cycles that the object has spent stopped
system.cpu.ipc                               0.177994                       # IPC: instructions per cycle
system.cpu.numCycles                            86666                       # number of cpu cycles simulated
system.cpu.numFetchSuspends                         0                       # Number of times Execute suspended instruction fetching
system.cpu.numWorkItemsCompleted                    0                       # number of work items this cpu completed
system.cpu.numWorkItemsStarted                      0                       # number of work items this cpu started
system.cpu.op_class_0::No_OpClass                   0      0.00%      0.00% # Class of committed instruction
system.cpu.op_class_0::IntAlu                   12030     69.67%     69.67% # Class of committed instruction
system.cpu.op_class_0::IntMult                    125      0.72%     70.40% # Class of committed instruction
system.cpu.op_class_0::IntDiv                       0      0.00%     70.40% # Class of committed instruction
system.cpu.op_class_0::FloatAdd                     0      0.00%     70.40% # Class of committed instruction
system.cpu.op_class_0::FloatCmp                     0      0.00%     70.40% # Class of committed instruction
system.cpu.op_class_0::FloatCvt                     0      0.00%     70.40% # Class of committed instruction
system.cpu.op_class_0::FloatMult                    0      0.00%     70.40% # Class of committed instruction
system.cpu.op_class_0::FloatMultAcc                 0      0.00%     70.40% # Class of committed instruction
system.cpu.op_class_0::FloatDiv                     0      0.00%     70.40% # Class of committed instruction
system.cpu.op_class_0::FloatMisc                    0      0.00%     70.40% # Class of committed instruction
system.cpu.op_class_0::FloatSqrt                    0      0.00%     70.40% # Class of committed instruction
system.cpu.op_class_0::SimdAdd                      0      0.00%     70.40% # Class of committed instruction
system.cpu.op_class_0::SimdAddAcc                   0      0.00%     70.40% # Class of committed instruction
system.cpu.op_class_0::SimdAlu                      0      0.00%     70.40% # Class of committed instruction
system.cpu.op_class_0::SimdCmp                      0      0.00%     70.40% # Class of committed instruction
system.cpu.op_class_0::SimdCvt                      0      0.00%     70.40% # Class of committed instruction
system.cpu.op_class_0::SimdMisc                     0      0.00%     70.40% # Class of committed instruction
system.cpu.op_class_0::SimdMult                     0      0.00%     70.40% # Class of committed instruction
system.cpu.op_class_0::SimdMultAcc                  0      0.00%     70.40% # Class of committed instruction
system.cpu.op_class_0::SimdShift                    0      0.00%     70.40% # Class of committed instruction
system.cpu.op_class_0::SimdShiftAcc                 0      0.00%     70.40% # Class of committed instruction
system.cpu.op_class_0::SimdDiv                      0      0.00%     70.40% # Class of committed instruction
system.cpu.op_class_0::SimdSqrt                     0      0.00%     70.40% # Class of committed instruction
system.cpu.op_class_0::SimdFloatAdd                 0      0.00%     70.40% # Class of committed instruction
system.cpu.op_class_0::SimdFloatAlu                 0      0.00%     70.40% # Class of committed instruction
system.cpu.op_class_0::SimdFloatCmp                 0      0.00%     70.40% # Class of committed instruction
system.cpu.op_class_0::SimdFloatCvt                 2      0.01%     70.41% # Class of committed instruction
system.cpu.op_class_0::SimdFloatDiv                 0      0.00%     70.41% # Class of committed instruction
system.cpu.op_class_0::SimdFloatMisc                6      0.03%     70.44% # Class of committed instruction
system.cpu.op_class_0::SimdFloatMult                0      0.00%     70.44% # Class of committed instruction
system.cpu.op_class_0::SimdFloatMultAcc             0      0.00%     70.44% # Class of committed instruction
system.cpu.op_class_0::SimdFloatSqrt                0      0.00%     70.44% # Class of committed instruction
system.cpu.op_class_0::SimdReduceAdd                0      0.00%     70.44% # Class of committed instruction
system.cpu.op_class_0::SimdReduceAlu                0      0.00%     70.44% # Class of committed instruction
system.cpu.op_class_0::SimdReduceCmp                0      0.00%     70.44% # Class of committed instruction
system.cpu.op_class_0::SimdFloatReduceAdd            0      0.00%     70.44% # Class of committed instruction
system.cpu.op_class_0::SimdFloatReduceCmp            0      0.00%     70.44% # Class of committed instruction
system.cpu.op_class_0::SimdAes                      0      0.00%     70.44% # Class of committed instruction
system.cpu.op_class_0::SimdAesMix                   0      0.00%     70.44% # Class of committed instruction
system.cpu.op_class_0::SimdSha1Hash                 0      0.00%     70.44% # Class of committed instruction
system.cpu.op_class_0::SimdSha1Hash2                0      0.00%     70.44% # Class of committed instruction
system.cpu.op_class_0::SimdSha256Hash               0      0.00%     70.44% # Class of committed instruction
system.cpu.op_class_0::SimdSha256Hash2              0      0.00%     70.44% # Class of committed instruction
system.cpu.op_class_0::SimdShaSigma2                0      0.00%     70.44% # Class of committed instruction
system.cpu.op_class_0::SimdShaSigma3                0      0.00%     70.44% # Class of committed instruction
system.cpu.op_class_0::SimdPredAlu                  0      0.00%     70.44% # Class of committed instruction
system.cpu.op_class_0::MemRead                   3011     17.44%     87.88% # Class of committed instruction
system.cpu.op_class_0::MemWrite                  2092     12.12%    100.00% # Class of committed instruction
system.cpu.op_class_0::FloatMemRead                 0      0.00%    100.00% # Class of committed instruction
system.cpu.op_class_0::FloatMemWrite                0      0.00%    100.00% # Class of committed instruction
system.cpu.op_class_0::IprAccess                    0      0.00%    100.00% # Class of committed instruction
system.cpu.op_class_0::InstPrefetch                 0      0.00%    100.00% # Class of committed instruction
system.cpu.op_class_0::total                    17266                       # Class of committed instruction
system.cpu.tickCycles                           27760                       # Number of cycles that the object actually ticked
system.cpu.workload.numSyscalls                    13                       # Number of system calls
system.membus.snoop_filter.hit_multi_requests            0                       # Number of requests hitting in the snoop filter with multiple (>1) holders of the requested data.
system.membus.snoop_filter.hit_multi_snoops            0                       # Number of snoops hitting in the snoop filter with multiple (>1) holders of the requested data.
system.membus.snoop_filter.hit_single_requests            0                       # Number of requests hitting in the snoop filter with a single holder of the requested data.
system.membus.snoop_filter.hit_single_snoops            0                       # Number of snoops hitting in the snoop filter with a single holder of the requested data.
system.membus.snoop_filter.tot_requests           740                       # Total number of requests made to the snoop filter.
system.membus.snoop_filter.tot_snoops               0                       # Total number of snoops made to the snoop filter.
system.tol2bus.snoop_filter.hit_multi_requests            9                       # Number of requests hitting in the snoop filter with multiple (>1) holders of the requested data.
system.tol2bus.snoop_filter.hit_multi_snoops            0                       # Number of snoops hitting in the snoop filter with multiple (>1) holders of the requested data.
system.tol2bus.snoop_filter.hit_single_requests          207                       # Number of requests hitting in the snoop filter with a single holder of the requested data.
system.tol2bus.snoop_filter.hit_single_snoops            0                       # Number of snoops hitting in the snoop filter with a single holder of the requested data.
system.tol2bus.snoop_filter.tot_requests         1021                       # Total number of requests made to the snoop filter.
system.tol2bus.snoop_filter.tot_snoops              0                       # Total number of snoops made to the snoop filter.
system.clk_domain.clock                          1000                       # Clock period in ticks
system.cpu.branchPred.lookups                    4671                       # Number of BP lookups
system.cpu.branchPred.condPredicted              3024                       # Number of conditional branches predicted
system.cpu.branchPred.condIncorrect               850                       # Number of conditional branches incorrect
system.cpu.branchPred.BTBLookups                 2492                       # Number of BTB lookups
system.cpu.branchPred.BTBHits                    1079                       # Number of BTB hits
system.cpu.branchPred.BTBHitPct             43.298555                       # BTB Hit Percentage
system.cpu.branchPred.RASUsed                     394                       # Number of times the RAS was used to get a target.
system.cpu.branchPred.RASIncorrect                  1                       # Number of incorrect RAS predictions.
system.cpu.branchPred.indirectLookups             149                       # Number of indirect predictor lookups.
system.cpu.branchPred.indirectHits                 13                       # Number of indirect target hits.
system.cpu.branchPred.indirectMisses              136                       # Number of indirect misses.
system.cpu.branchPred.indirectMispredicted           67                       # Number of mispredicted indirect branches.
system.cpu.dcache.demand_hits::.cpu.data         5027                       # number of demand (read+write) hits
system.cpu.dcache.demand_hits::total             5027                       # number of demand (read+write) hits
system.cpu.dcache.overall_hits::.cpu.data         5077                       # number of overall hits
system.cpu.dcache.overall_hits::total            5077                       # number of overall hits
system.cpu.dcache.demand_misses::.cpu.data          283                       # number of demand (read+write) misses
system.cpu.dcache.demand_misses::total            283                       # number of demand (read+write) misses
system.cpu.dcache.overall_misses::.cpu.data          309                       # number of overall misses
system.cpu.dcache.overall_misses::total           309                       # number of overall misses
system.cpu.dcache.demand_miss_latency::.cpu.data     27091000                       # number of demand (read+write) miss cycles
system.cpu.dcache.demand_miss_latency::total     27091000                       # number of demand (read+write) miss cycles
system.cpu.dcache.overall_miss_latency::.cpu.data     27091000                       # number of overall miss cycles
system.cpu.dcache.overall_miss_latency::total     27091000                       # number of overall miss cycles
system.cpu.dcache.demand_accesses::.cpu.data         5310                       # number of demand (read+write) accesses
system.cpu.dcache.demand_accesses::total         5310                       # number of demand (read+write) accesses
system.cpu.dcache.overall_accesses::.cpu.data         5386                       # number of overall (read+write) accesses
system.cpu.dcache.overall_accesses::total         5386                       # number of overall (read+write) accesses
system.cpu.dcache.demand_miss_rate::.cpu.data     0.053296                       # miss rate for demand accesses
system.cpu.dcache.demand_miss_rate::total     0.053296                       # miss rate for demand accesses
system.cpu.dcache.overall_miss_rate::.cpu.data     0.057371                       # miss rate for overall accesses
system.cpu.dcache.overall_miss_rate::total     0.057371                       # miss rate for overall accesses
system.cpu.dcache.demand_avg_miss_latency::.cpu.data 95727.915194                       # average overall miss latency
system.cpu.dcache.demand_avg_miss_latency::total 95727.915194                       # average overall miss latency
system.cpu.dcache.overall_avg_miss_latency::.cpu.data 87673.139159                       # average overall miss latency
system.cpu.dcache.overall_avg_miss_latency::total 87673.139159                       # average overall miss latency
system.cpu.dcache.blocked_cycles::no_mshrs            0                       # number of cycles access was blocked
system.cpu.dcache.blocked_cycles::no_targets            0                       # number of cycles access was blocked
system.cpu.dcache.blocked::no_mshrs                 0                       # number of cycles access was blocked
system.cpu.dcache.blocked::no_targets               0                       # number of cycles access was blocked
system.cpu.dcache.avg_blocked_cycles::no_mshrs          nan                       # average number of cycles each access was blocked
system.cpu.dcache.avg_blocked_cycles::no_targets          nan                       # average number of cycles each access was blocked
system.cpu.dcache.writebacks::.writebacks           25                       # number of writebacks
system.cpu.dcache.writebacks::total                25                       # number of writebacks
system.cpu.dcache.demand_mshr_hits::.cpu.data           59                       # number of demand (read+write) MSHR hits
system.cpu.dcache.demand_mshr_hits::total           59                       # number of demand (read+write) MSHR hits
system.cpu.dcache.overall_mshr_hits::.cpu.data           59                       # number of overall MSHR hits
system.cpu.dcache.overall_mshr_hits::total           59                       # number of overall MSHR hits
system.cpu.dcache.demand_mshr_misses::.cpu.data          224                       # number of demand (read+write) MSHR misses
system.cpu.dcache.demand_mshr_misses::total          224                       # number of demand (read+write) MSHR misses
system.cpu.dcache.overall_mshr_misses::.cpu.data          244                       # number of overall MSHR misses
system.cpu.dcache.overall_mshr_misses::total          244                       # number of overall MSHR misses
system.cpu.dcache.demand_mshr_miss_latency::.cpu.data     20928000                       # number of demand (read+write) MSHR miss cycles
system.cpu.dcache.demand_mshr_miss_latency::total     20928000                       # number of demand (read+write) MSHR miss cycles
system.cpu.dcache.overall_mshr_miss_latency::.cpu.data     22943000                       # number of overall MSHR miss cycles
system.cpu.dcache.overall_mshr_miss_latency::total     22943000                       # number of overall MSHR miss cycles
system.cpu.dcache.demand_mshr_miss_rate::.cpu.data     0.042185                       # mshr miss rate for demand accesses
system.cpu.dcache.demand_mshr_miss_rate::total     0.042185                       # mshr miss rate for demand accesses
system.cpu.dcache.overall_mshr_miss_rate::.cpu.data     0.045303                       # mshr miss rate for overall accesses
system.cpu.dcache.overall_mshr_miss_rate::total     0.045303                       # mshr miss rate for overall accesses
system.cpu.dcache.demand_avg_mshr_miss_latency::.cpu.data 93428.571429                       # average overall mshr miss latency
system.cpu.dcache.demand_avg_mshr_miss_latency::total 93428.571429                       # average overall mshr miss latency
system.cpu.dcache.overall_avg_mshr_miss_latency::.cpu.data 94028.688525                       # average overall mshr miss latency
system.cpu.dcache.overall_avg_mshr_miss_latency::total 94028.688525                       # average overall mshr miss latency
system.cpu.dcache.replacements                     57                       # number of replacements
system.cpu.dcache.ReadReq_hits::.cpu.data         3130                       # number of ReadReq hits
system.cpu.dcache.ReadReq_hits::total            3130                       # number of ReadReq hits
system.cpu.dcache.ReadReq_misses::.cpu.data          147                       # number of ReadReq misses
system.cpu.dcache.ReadReq_misses::total           147                       # number of ReadReq misses
system.cpu.dcache.ReadReq_miss_latency::.cpu.data     13612000                       # number of ReadReq miss cycles
system.cpu.dcache.ReadReq_miss_latency::total     13612000                       # number of ReadReq miss cycles
system.cpu.dcache.ReadReq_accesses::.cpu.data         3277                       # number of ReadReq accesses(hits+misses)
system.cpu.dcache.ReadReq_accesses::total         3277                       # number of ReadReq accesses(hits+misses)
system.cpu.dcache.ReadReq_miss_rate::.cpu.data     0.044858                       # miss rate for ReadReq accesses
system.cpu.dcache.ReadReq_miss_rate::total     0.044858                       # miss rate for ReadReq accesses
system.cpu.dcache.ReadReq_avg_miss_latency::.cpu.data 92598.639456                       # average ReadReq miss latency
system.cpu.dcache.ReadReq_avg_miss_latency::total 92598.639456                       # average ReadReq miss latency
system.cpu.dcache.ReadReq_mshr_hits::.cpu.data            7                       # number of ReadReq MSHR hits
system.cpu.dcache.ReadReq_mshr_hits::total            7                       # number of ReadReq MSHR hits
system.cpu.dcache.ReadReq_mshr_misses::.cpu.data          140                       # number of ReadReq MSHR misses
system.cpu.dcache.ReadReq_mshr_misses::total          140                       # number of ReadReq MSHR misses
system.cpu.dcache.ReadReq_mshr_miss_latency::.cpu.data     12681000                       # number of ReadReq MSHR miss cycles
system.cpu.dcache.ReadReq_mshr_miss_latency::total     12681000                       # number of ReadReq MSHR miss cycles
system.cpu.dcache.ReadReq_mshr_miss_rate::.cpu.data     0.042722                       # mshr miss rate for ReadReq accesses
system.cpu.dcache.ReadReq_mshr_miss_rate::total     0.042722                       # mshr miss rate for ReadReq accesses
system.cpu.dcache.ReadReq_avg_mshr_miss_latency::.cpu.data 90578.571429                       # average ReadReq mshr miss latency
system.cpu.dcache.ReadReq_avg_mshr_miss_latency::total 90578.571429                       # average ReadReq mshr miss latency
system.cpu.dcache.WriteReq_hits::.cpu.data         1897                       # number of WriteReq hits
system.cpu.dcache.WriteReq_hits::total           1897                       # number of WriteReq hits
system.cpu.dcache.WriteReq_misses::.cpu.data          136                       # number of WriteReq misses
system.cpu.dcache.WriteReq_misses::total          136                       # number of WriteReq misses
system.cpu.dcache.WriteReq_miss_latency::.cpu.data     13479000                       # number of WriteReq miss cycles
system.cpu.dcache.WriteReq_miss_latency::total     13479000                       # number of WriteReq miss cycles
system.cpu.dcache.WriteReq_accesses::.cpu.data         2033                       # number of WriteReq accesses(hits+misses)
system.cpu.dcache.WriteReq_accesses::total         2033                       # number of WriteReq accesses(hits+misses)
system.cpu.dcache.WriteReq_miss_rate::.cpu.data     0.066896                       # miss rate for WriteReq accesses
system.cpu.dcache.WriteReq_miss_rate::total     0.066896                       # miss rate for WriteReq accesses
system.cpu.dcache.WriteReq_avg_miss_latency::.cpu.data 99110.294118                       # average WriteReq miss latency
system.cpu.dcache.WriteReq_avg_miss_latency::total 99110.294118                       # average WriteReq miss latency
system.cpu.dcache.WriteReq_mshr_hits::.cpu.data           52                       # number of WriteReq MSHR hits
system.cpu.dcache.WriteReq_mshr_hits::total           52                       # number of WriteReq MSHR hits
system.cpu.dcache.WriteReq_mshr_misses::.cpu.data           84                       # number of WriteReq MSHR misses
system.cpu.dcache.WriteReq_mshr_misses::total           84                       # number of WriteReq MSHR misses
system.cpu.dcache.WriteReq_mshr_miss_latency::.cpu.data      8247000                       # number of WriteReq MSHR miss cycles
system.cpu.dcache.WriteReq_mshr_miss_latency::total      8247000                       # number of WriteReq MSHR miss cycles
system.cpu.dcache.WriteReq_mshr_miss_rate::.cpu.data     0.041318                       # mshr miss rate for WriteReq accesses
system.cpu.dcache.WriteReq_mshr_miss_rate::total     0.041318                       # mshr miss rate for WriteReq accesses
system.cpu.dcache.WriteReq_avg_mshr_miss_latency::.cpu.data 98178.571429                       # average WriteReq mshr miss latency
system.cpu.dcache.WriteReq_avg_mshr_miss_latency::total 98178.571429                       # average WriteReq mshr miss latency
system.cpu.dcache.SoftPFReq_hits::.cpu.data           50                       # number of SoftPFReq hits
system.cpu.dcache.SoftPFReq_hits::total            50                       # number of SoftPFReq hits
system.cpu.dcache.SoftPFReq_misses::.cpu.data           26                       # number of SoftPFReq misses
system.cpu.dcache.SoftPFReq_misses::total           26                       # number of SoftPFReq misses
system.cpu.dcache.SoftPFReq_accesses::.cpu.data           76                       # number of SoftPFReq accesses(hits+misses)
system.cpu.dcache.SoftPFReq_accesses::total           76                       # number of SoftPFReq accesses(hits+misses)
system.cpu.dcache.SoftPFReq_miss_rate::.cpu.data     0.342105                       # miss rate for SoftPFReq accesses
system.cpu.dcache.SoftPFReq_miss_rate::total     0.342105                       # miss rate for SoftPFReq accesses
system.cpu.dcache.SoftPFReq_mshr_misses::.cpu.data           20                       # number of SoftPFReq MSHR misses
system.cpu.dcache.SoftPFReq_mshr_misses::total           20                       # number of SoftPFReq MSHR misses
system.cpu.dcache.SoftPFReq_mshr_miss_latency::.cpu.data      2015000                       # number of SoftPFReq MSHR miss cycles
system.cpu.dcache.SoftPFReq_mshr_miss_latency::total      2015000                       # number of SoftPFReq MSHR miss cycles
system.cpu.dcache.SoftPFReq_mshr_miss_rate::.cpu.data     0.263158                       # mshr miss rate for SoftPFReq accesses
system.cpu.dcache.SoftPFReq_mshr_miss_rate::total     0.263158                       # mshr miss rate for SoftPFReq accesses
system.cpu.dcache.SoftPFReq_avg_mshr_miss_latency::.cpu.data       100750                       # average SoftPFReq mshr miss latency
system.cpu.dcache.SoftPFReq_avg_mshr_miss_latency::total       100750                       # average SoftPFReq mshr miss latency
system.cpu.dcache.LoadLockedReq_hits::.cpu.data           19                       # number of LoadLockedReq hits
system.cpu.dcache.LoadLockedReq_hits::total           19                       # number of LoadLockedReq hits
system.cpu.dcache.LoadLockedReq_misses::.cpu.data            1                       # number of LoadLockedReq misses
system.cpu.dcache.LoadLockedReq_misses::total            1                       # number of LoadLockedReq misses
system.cpu.dcache.LoadLockedReq_miss_latency::.cpu.data        95000                       # number of LoadLockedReq miss cycles
system.cpu.dcache.LoadLockedReq_miss_latency::total        95000                       # number of LoadLockedReq miss cycles
system.cpu.dcache.LoadLockedReq_accesses::.cpu.data           20                       # number of LoadLockedReq accesses(hits+misses)
system.cpu.dcache.LoadLockedReq_accesses::total           20                       # number of LoadLockedReq accesses(hits+misses)
system.cpu.dcache.LoadLockedReq_miss_rate::.cpu.data     0.050000                       # miss rate for LoadLockedReq accesses
system.cpu.dcache.LoadLockedReq_miss_rate::total     0.050000                       # miss rate for LoadLockedReq accesses
system.cpu.dcache.LoadLockedReq_avg_miss_latency::.cpu.data        95000                       # average LoadLockedReq miss latency
system.cpu.dcache.LoadLockedReq_avg_miss_latency::total        95000                       # average LoadLockedReq miss latency
system.cpu.dcache.LoadLockedReq_mshr_misses::.cpu.data            1                       # number of LoadLockedReq MSHR misses
system.cpu.dcache.LoadLockedReq_mshr_misses::total            1                       # number of LoadLockedReq MSHR misses
system.cpu.dcache.LoadLockedReq_mshr_miss_latency::.cpu.data        93000                       # number of LoadLockedReq MSHR miss cycles
system.cpu.dcache.LoadLockedReq_mshr_miss_latency::total        93000                       # number of LoadLockedReq MSHR miss cycles
system.cpu.dcache.LoadLockedReq_mshr_miss_rate::.cpu.data     0.050000                       # mshr miss rate for LoadLockedReq accesses
system.cpu.dcache.LoadLockedReq_mshr_miss_rate::total     0.050000                       # mshr miss rate for LoadLockedReq accesses
system.cpu.dcache.LoadLockedReq_avg_mshr_miss_latency::.cpu.data        93000                       # average LoadLockedReq mshr miss latency
system.cpu.dcache.LoadLockedReq_avg_mshr_miss_latency::total        93000                       # average LoadLockedReq mshr miss latency
system.cpu.dcache.StoreCondReq_hits::.cpu.data           20                       # number of StoreCondReq hits
system.cpu.dcache.StoreCondReq_hits::total           20                       # number of StoreCondReq hits
system.cpu.dcache.StoreCondReq_accesses::.cpu.data           20                       # number of StoreCondReq accesses(hits+misses)
system.cpu.dcache.StoreCondReq_accesses::total           20                       # number of StoreCondReq accesses(hits+misses)
system.cpu.dcache.power_state.pwrStateResidencyTicks::UNDEFINED     86666000                       # Cumulative time (in ticks) in various power states
system.cpu.dcache.tags.tagsinuse           115.725441                       # Cycle average of tags in use
system.cpu.dcache.tags.total_refs                5361                       # Total number of references to valid blocks.
system.cpu.dcache.tags.sampled_refs               245                       # Sample count of references to valid blocks.
system.cpu.dcache.tags.avg_refs             21.881633                       # Average number of references to valid blocks.
system.cpu.dcache.tags.warmup_cycle            223000                       # Cycle when the warmup percentage was hit.
system.cpu.dcache.tags.occ_blocks::.cpu.data   115.725441                       # Average occupied blocks per requestor
system.cpu.dcache.tags.occ_percent::.cpu.data     0.226026                       # Average percentage of cache occupancy
system.cpu.dcache.tags.occ_percent::total     0.226026                       # Average percentage of cache occupancy
system.cpu.dcache.tags.occ_task_id_blocks::1024          188                       # Occupied blocks per task id
system.cpu.dcache.tags.age_task_id_blocks_1024::0           24                       # Occupied blocks per task id
system.cpu.dcache.tags.age_task_id_blocks_1024::1          164                       # Occupied blocks per task id
system.cpu.dcache.tags.occ_task_id_percent::1024     0.367188                       # Percentage of cache occupancy per task id
system.cpu.dcache.tags.tag_accesses              5671                       # Number of tag accesses
system.cpu.dcache.tags.data_accesses             5671                       # Number of data accesses
system.cpu.dcache.tags.power_state.pwrStateResidencyTicks::UNDEFINED     86666000                       # Cumulative time (in ticks) in various power states
system.cpu.dtb.instHits                             0                       # ITB inst hits
system.cpu.dtb.instMisses                           0                       # ITB inst misses
system.cpu.dtb.readHits                             0                       # DTB read hits
system.cpu.dtb.readMisses                           0                       # DTB read misses
system.cpu.dtb.writeHits                            0                       # DTB write hits
system.cpu.dtb.writeMisses                          0                       # DTB write misses
system.cpu.dtb.inserts                              0                       # Number of times an entry is inserted into the TLB
system.cpu.dtb.flushTlb                             0                       # Number of times complete TLB was flushed
system.cpu.dtb.flushTlbMva                          0                       # Number of times TLB was flushed by MVA
system.cpu.dtb.flushTlbMvaAsid                      0                       # Number of times TLB was flushed by MVA & ASID
system.cpu.dtb.flushTlbAsid                         0                       # Number of times TLB was flushed by ASID
system.cpu.dtb.flushedEntries                       0                       # Number of entries that have been flushed from TLB
system.cpu.dtb.alignFaults                          0                       # Number of TLB faults due to alignment restrictions
system.cpu.dtb.prefetchFaults                       0                       # Number of TLB faults due to prefetch
system.cpu.dtb.domainFaults                         0                       # Number of TLB faults due to domain restrictions
system.cpu.dtb.permsFaults                          0                       # Number of TLB faults due to permissions restrictions
system.cpu.dtb.readAccesses                         0                       # DTB read accesses
system.cpu.dtb.writeAccesses                        0                       # DTB write accesses
system.cpu.dtb.instAccesses                         0                       # ITB inst accesses
system.cpu.dtb.hits                                 0                       # Total TLB (inst and data) hits
system.cpu.dtb.misses                               0                       # Total TLB (inst and data) misses
system.cpu.dtb.accesses                             0                       # Total TLB (inst and data) accesses
system.cpu.dtb.stage2_mmu.stage2_tlb.instHits            0                       # ITB inst hits
system.cpu.dtb.stage2_mmu.stage2_tlb.instMisses            0                       # ITB inst misses
system.cpu.dtb.stage2_mmu.stage2_tlb.readHits            0                       # DTB read hits
system.cpu.dtb.stage2_mmu.stage2_tlb.readMisses            0                       # DTB read misses
system.cpu.dtb.stage2_mmu.stage2_tlb.writeHits            0                       # DTB write hits
system.cpu.dtb.stage2_mmu.stage2_tlb.writeMisses            0                       # DTB write misses
system.cpu.dtb.stage2_mmu.stage2_tlb.inserts            0                       # Number of times an entry is inserted into the TLB
system.cpu.dtb.stage2_mmu.stage2_tlb.flushTlb            0                       # Number of times complete TLB was flushed
system.cpu.dtb.stage2_mmu.stage2_tlb.flushTlbMva            0                       # Number of times TLB was flushed by MVA
system.cpu.dtb.stage2_mmu.stage2_tlb.flushTlbMvaAsid            0                       # Number of times TLB was flushed by MVA & ASID
system.cpu.dtb.stage2_mmu.stage2_tlb.flushTlbAsid            0                       # Number of times TLB was flushed by ASID
system.cpu.dtb.stage2_mmu.stage2_tlb.flushedEntries            0                       # Number of entries that have been flushed from TLB
system.cpu.dtb.stage2_mmu.stage2_tlb.alignFaults            0                       # Number of TLB faults due to alignment restrictions
system.cpu.dtb.stage2_mmu.stage2_tlb.prefetchFaults            0                       # Number of TLB faults due to prefetch
system.cpu.dtb.stage2_mmu.stage2_tlb.domainFaults            0                       # Number of TLB faults due to domain restrictions
system.cpu.dtb.stage2_mmu.stage2_tlb.permsFaults            0                       # Number of TLB faults due to permissions restrictions
system.cpu.dtb.stage2_mmu.stage2_tlb.readAccesses            0                       # DTB read accesses
system.cpu.dtb.stage2_mmu.stage2_tlb.writeAccesses            0                       # DTB write accesses
system.cpu.dtb.stage2_mmu.stage2_tlb.instAccesses            0                       # ITB inst accesses
system.cpu.dtb.stage2_mmu.stage2_tlb.hits            0                       # Total TLB (inst and data) hits
system.cpu.dtb.stage2_mmu.stage2_tlb.misses            0                       # Total TLB (inst and data) misses
system.cpu.dtb.stage2_mmu.stage2_tlb.accesses            0                       # Total TLB (inst and data) accesses
system.cpu.dtb.stage2_mmu.stage2_tlb.walker.walks            0                       # Table walker walks requested
system.cpu.dtb.stage2_mmu.stage2_tlb.walker.requestOrigin_Requested::Data            0                       # Table walker requests started/completed, data/inst
system.cpu.dtb.stage2_mmu.stage2_tlb.walker.requestOrigin_Requested::Inst            0                       # Table walker requests started/completed, data/inst
system.cpu.dtb.stage2_mmu.stage2_tlb.walker.requestOrigin_Requested::total            0                       # Table walker requests started/completed, data/inst
system.cpu.dtb.stage2_mmu.stage2_tlb.walker.requestOrigin_Completed::Data            0                       # Table walker requests started/completed, data/inst
system.cpu.dtb.stage2_mmu.stage2_tlb.walker.requestOrigin_Completed::Inst            0                       # Table walker requests started/completed, data/inst
system.cpu.dtb.stage2_mmu.stage2_tlb.walker.requestOrigin_Completed::total            0                       # Table walker requests started/completed, data/inst
system.cpu.dtb.stage2_mmu.stage2_tlb.walker.requestOrigin::total            0                       # Table walker requests started/completed, data/inst
system.cpu.dtb.stage2_mmu.stage2_tlb.walker.power_state.pwrStateResidencyTicks::UNDEFINED     86666000                       # Cumulative time (in ticks) in various power states
system.cpu.dtb.walker.walks                         0                       # Table walker walks requested
system.cpu.dtb.walker.requestOrigin_Requested::Data            0                       # Table walker requests started/completed, data/inst
system.cpu.dtb.walker.requestOrigin_Requested::Inst            0                       # Table walker requests started/completed, data/inst
system.cpu.dtb.walker.requestOrigin_Requested::total            0                       # Table walker requests started/completed, data/inst
system.cpu.dtb.walker.requestOrigin_Completed::Data            0                       # Table walker requests started/completed, data/inst
system.cpu.dtb.walker.requestOrigin_Completed::Inst            0                       # Table walker requests started/completed, data/inst
system.cpu.dtb.walker.requestOrigin_Completed::total            0                       # Table walker requests started/completed, data/inst
system.cpu.dtb.walker.requestOrigin::total            0                       # Table walker requests started/completed, data/inst
system.cpu.dtb.walker.power_state.pwrStateResidencyTicks::UNDEFINED     86666000                       # Cumulative time (in ticks) in various power states
system.cpu.fetch2.intInstructions               15293                       # Number of integer instructions successfully decoded
system.cpu.fetch2.fpInstructions                    0                       # Number of floating point instructions successfully decoded
system.cpu.fetch2.vecInstructions                   0                       # Number of SIMD instructions successfully decoded
system.cpu.fetch2.loadInstructions               4137                       # Number of memory load instructions successfully decoded
system.cpu.fetch2.storeInstructions              1659                       # Number of memory store instructions successfully decoded
system.cpu.fetch2.amoInstructions                   0                       # Number of memory atomic instructions successfully decoded
system.cpu.icache.demand_hits::.cpu.inst         5296                       # number of demand (read+write) hits
system.cpu.icache.demand_hits::total             5296                       # number of demand (read+write) hits
system.cpu.icache.overall_hits::.cpu.inst         5296                       # number of overall hits
system.cpu.icache.overall_hits::total            5296                       # number of overall hits
system.cpu.icache.demand_misses::.cpu.inst          593                       # number of demand (read+write) misses
system.cpu.icache.demand_misses::total            593                       # number of demand (read+write) misses
system.cpu.icache.overall_misses::.cpu.inst          593                       # number of overall misses
system.cpu.icache.overall_misses::total           593                       # number of overall misses
system.cpu.icache.demand_miss_latency::.cpu.inst     56762000                       # number of demand (read+write) miss cycles
system.cpu.icache.demand_miss_latency::total     56762000                       # number of demand (read+write) miss cycles
system.cpu.icache.overall_miss_latency::.cpu.inst     56762000                       # number of overall miss cycles
system.cpu.icache.overall_miss_latency::total     56762000                       # number of overall miss cycles
system.cpu.icache.demand_accesses::.cpu.inst         5889                       # number of demand (read+write) accesses
system.cpu.icache.demand_accesses::total         5889                       # number of demand (read+write) accesses
system.cpu.icache.overall_accesses::.cpu.inst         5889                       # number of overall (read+write) accesses
system.cpu.icache.overall_accesses::total         5889                       # number of overall (read+write) accesses
system.cpu.icache.demand_miss_rate::.cpu.inst     0.100696                       # miss rate for demand accesses
system.cpu.icache.demand_miss_rate::total     0.100696                       # miss rate for demand accesses
system.cpu.icache.overall_miss_rate::.cpu.inst     0.100696                       # miss rate for overall accesses
system.cpu.icache.overall_miss_rate::total     0.100696                       # miss rate for overall accesses
system.cpu.icache.demand_avg_miss_latency::.cpu.inst 95720.067454                       # average overall miss latency
system.cpu.icache.demand_avg_miss_latency::total 95720.067454                       # average overall miss latency
system.cpu.icache.overall_avg_miss_latency::.cpu.inst 95720.067454                       # average overall miss latency
system.cpu.icache.overall_avg_miss_latency::total 95720.067454                       # average overall miss latency
system.cpu.icache.blocked_cycles::no_mshrs            0                       # number of cycles access was blocked
system.cpu.icache.blocked_cycles::no_targets            0                       # number of cycles access was blocked
system.cpu.icache.blocked::no_mshrs                 0                       # number of cycles access was blocked
system.cpu.icache.blocked::no_targets               0                       # number of cycles access was blocked
system.cpu.icache.avg_blocked_cycles::no_mshrs          nan                       # average number of cycles each access was blocked
system.cpu.icache.avg_blocked_cycles::no_targets          nan                       # average number of cycles each access was blocked
system.cpu.icache.writebacks::.writebacks          126                       # number of writebacks
system.cpu.icache.writebacks::total               126                       # number of writebacks
system.cpu.icache.demand_mshr_misses::.cpu.inst          593                       # number of demand (read+write) MSHR misses
system.cpu.icache.demand_mshr_misses::total          593                       # number of demand (read+write) MSHR misses
system.cpu.icache.overall_mshr_misses::.cpu.inst          593                       # number of overall MSHR misses
system.cpu.icache.overall_mshr_misses::total          593                       # number of overall MSHR misses
system.cpu.icache.demand_mshr_miss_latency::.cpu.inst     55576000                       # number of demand (read+write) MSHR miss cycles
system.cpu.icache.demand_mshr_miss_latency::total     55576000                       # number of demand (read+write) MSHR miss cycles
system.cpu.icache.overall_mshr_miss_latency::.cpu.inst     55576000                       # number of overall MSHR miss cycles
system.cpu.icache.overall_mshr_miss_latency::total     55576000                       # number of overall MSHR miss cycles
system.cpu.icache.demand_mshr_miss_rate::.cpu.inst     0.100696                       # mshr miss rate for demand accesses
system.cpu.icache.demand_mshr_miss_rate::total     0.100696                       # mshr miss rate for demand accesses
system.cpu.icache.overall_mshr_miss_rate::.cpu.inst     0.100696                       # mshr miss rate for overall accesses
system.cpu.icache.overall_mshr_miss_rate::total     0.100696                       # mshr miss rate for overall accesses
system.cpu.icache.demand_avg_mshr_miss_latency::.cpu.inst 93720.067454                       # average overall mshr miss latency
system.cpu.icache.demand_avg_mshr_miss_latency::total 93720.067454                       # average overall mshr miss latency
system.cpu.icache.overall_avg_mshr_miss_latency::.cpu.inst 93720.067454                       # average overall mshr miss latency
system.cpu.icache.overall_avg_mshr_miss_latency::total 93720.067454                       # average overall mshr miss latency
system.cpu.icache.replacements                    126                       # number of replacements
system.cpu.icache.ReadReq_hits::.cpu.inst         5296                       # number of ReadReq hits
system.cpu.icache.ReadReq_hits::total            5296                       # number of ReadReq hits
system.cpu.icache.ReadReq_misses::.cpu.inst          593                       # number of ReadReq misses
system.cpu.icache.ReadReq_misses::total           593                       # number of ReadReq misses
system.cpu.icache.ReadReq_miss_latency::.cpu.inst     56762000                       # number of ReadReq miss cycles
system.cpu.icache.ReadReq_miss_latency::total     56762000                       # number of ReadReq miss cycles
system.cpu.icache.ReadReq_accesses::.cpu.inst         5889                       # number of ReadReq accesses(hits+misses)
system.cpu.icache.ReadReq_accesses::total         5889                       # number of ReadReq accesses(hits+misses)
system.cpu.icache.ReadReq_miss_rate::.cpu.inst     0.100696                       # miss rate for ReadReq accesses
system.cpu.icache.ReadReq_miss_rate::total     0.100696                       # miss rate for ReadReq accesses
system.cpu.icache.ReadReq_avg_miss_latency::.cpu.inst 95720.067454                       # average ReadReq miss latency
system.cpu.icache.ReadReq_avg_miss_latency::total 95720.067454                       # average ReadReq miss latency
system.cpu.icache.ReadReq_mshr_misses::.cpu.inst          593                       # number of ReadReq MSHR misses
system.cpu.icache.ReadReq_mshr_misses::total          593                       # number of ReadReq MSHR misses
system.cpu.icache.ReadReq_mshr_miss_latency::.cpu.inst     55576000                       # number of ReadReq MSHR miss cycles
system.cpu.icache.ReadReq_mshr_miss_latency::total     55576000                       # number of ReadReq MSHR miss cycles
system.cpu.icache.ReadReq_mshr_miss_rate::.cpu.inst     0.100696                       # mshr miss rate for ReadReq accesses
system.cpu.icache.ReadReq_mshr_miss_rate::total     0.100696                       # mshr miss rate for ReadReq accesses
system.cpu.icache.ReadReq_avg_mshr_miss_latency::.cpu.inst 93720.067454                       # average ReadReq mshr miss latency
system.cpu.icache.ReadReq_avg_mshr_miss_latency::total 93720.067454                       # average ReadReq mshr miss latency
system.cpu.icache.power_state.pwrStateResidencyTicks::UNDEFINED     86666000                       # Cumulative time (in ticks) in various power states
system.cpu.icache.tags.tagsinuse           250.466171                       # Cycle average of tags in use
system.cpu.icache.tags.total_refs                5889                       # Total number of references to valid blocks.
system.cpu.icache.tags.sampled_refs               593                       # Sample count of references to valid blocks.
system.cpu.icache.tags.avg_refs              9.930860                       # Average number of references to valid blocks.
system.cpu.icache.tags.warmup_cycle            108000                       # Cycle when the warmup percentage was hit.
system.cpu.icache.tags.occ_blocks::.cpu.inst   250.466171                       # Average occupied blocks per requestor
system.cpu.icache.tags.occ_percent::.cpu.inst     0.244596                       # Average percentage of cache occupancy
system.cpu.icache.tags.occ_percent::total     0.244596                       # Average percentage of cache occupancy
system.cpu.icache.tags.occ_task_id_blocks::1024          467                       # Occupied blocks per task id
system.cpu.icache.tags.age_task_id_blocks_1024::0           67                       # Occupied blocks per task id
system.cpu.icache.tags.age_task_id_blocks_1024::1          400                       # Occupied blocks per task id
system.cpu.icache.tags.occ_task_id_percent::1024     0.456055                       # Percentage of cache occupancy per task id
system.cpu.icache.tags.tag_accesses              6482                       # Number of tag accesses
system.cpu.icache.tags.data_accesses             6482                       # Number of data accesses
system.cpu.icache.tags.power_state.pwrStateResidencyTicks::UNDEFINED     86666000                       # Cumulative time (in ticks) in various power states
system.cpu.itb.instHits                             0                       # ITB inst hits
system.cpu.itb.instMisses                           0                       # ITB inst misses
system.cpu.itb.readHits                             0                       # DTB read hits
system.cpu.itb.readMisses                           0                       # DTB read misses
system.cpu.itb.writeHits                            0                       # DTB write hits
system.cpu.itb.writeMisses                          0                       # DTB write misses
system.cpu.itb.inserts                              0                       # Number of times an entry is inserted into the TLB
system.cpu.itb.flushTlb                             0                       # Number of times complete TLB was flushed
system.cpu.itb.flushTlbMva                          0                       # Number of times TLB was flushed by MVA
system.cpu.itb.flushTlbMvaAsid                      0                       # Number of times TLB was flushed by MVA & ASID
system.cpu.itb.flushTlbAsid                         0                       # Number of times TLB was flushed by ASID
system.cpu.itb.flushedEntries                       0                       # Number of entries that have been flushed from TLB
system.cpu.itb.alignFaults                          0                       # Number of TLB faults due to alignment restrictions
system.cpu.itb.prefetchFaults                       0                       # Number of TLB faults due to prefetch
system.cpu.itb.domainFaults                         0                       # Number of TLB faults due to domain restrictions
system.cpu.itb.permsFaults                          0                       # Number of TLB faults due to permissions restrictions
system.cpu.itb.readAccesses                         0                       # DTB read accesses
system.cpu.itb.writeAccesses                        0                       # DTB write accesses
system.cpu.itb.instAccesses                         0                       # ITB inst accesses
system.cpu.itb.hits                                 0                       # Total TLB (inst and data) hits
system.cpu.itb.misses                               0                       # Total TLB (inst and data) misses
system.cpu.itb.accesses                             0                       # Total TLB (inst and data) accesses
system.cpu.itb.stage2_mmu.stage2_tlb.instHits            0                       # ITB inst hits
system.cpu.itb.stage2_mmu.stage2_tlb.instMisses            0                       # ITB inst misses
system.cpu.itb.stage2_mmu.stage2_tlb.readHits            0                       # DTB read hits
system.cpu.itb.stage2_mmu.stage2_tlb.readMisses            0                       # DTB read misses
system.cpu.itb.stage2_mmu.stage2_tlb.writeHits            0                       # DTB write hits
system.cpu.itb.stage2_mmu.stage2_tlb.writeMisses            0                       # DTB write misses
system.cpu.itb.stage2_mmu.stage2_tlb.inserts            0                       # Number of times an entry is inserted into the TLB
system.cpu.itb.stage2_mmu.stage2_tlb.flushTlb            0                       # Number of times complete TLB was flushed
system.cpu.itb.stage2_mmu.stage2_tlb.flushTlbMva            0                       # Number of times TLB was flushed by MVA
system.cpu.itb.stage2_mmu.stage2_tlb.flushTlbMvaAsid            0                       # Number of times TLB was flushed by MVA & ASID
system.cpu.itb.stage2_mmu.stage2_tlb.flushTlbAsid            0                       # Number of times TLB was flushed by ASID
system.cpu.itb.stage2_mmu.stage2_tlb.flushedEntries            0                       # Number of entries that have been flushed from TLB
system.cpu.itb.stage2_mmu.stage2_tlb.alignFaults            0                       # Number of TLB faults due to alignment restrictions
system.cpu.itb.stage2_mmu.stage2_tlb.prefetchFaults            0                       # Number of TLB faults due to prefetch
system.cpu.itb.stage2_mmu.stage2_tlb.domainFaults            0                       # Number of TLB faults due to domain restrictions
system.cpu.itb.stage2_mmu.stage2_tlb.permsFaults            0                       # Number of TLB faults due to permissions restrictions
system.cpu.itb.stage2_mmu.stage2_tlb.readAccesses            0                       # DTB read accesses
system.cpu.itb.stage2_mmu.stage2_tlb.writeAccesses            0                       # DTB write accesses
system.cpu.itb.stage2_mmu.stage2_tlb.instAccesses            0                       # ITB inst accesses
system.cpu.itb.stage2_mmu.stage2_tlb.hits            0                       # Total TLB (inst and data) hits
system.cpu.itb.stage2_mmu.stage2_tlb.misses            0                       # Total TLB (inst and data) misses
system.cpu.itb.stage2_mmu.stage2_tlb.accesses            0                       # Total TLB (inst and data) accesses
system.cpu.itb.stage2_mmu.stage2_tlb.walker.walks            0                       # Table walker walks requested
system.cpu.itb.stage2_mmu.stage2_tlb.walker.requestOrigin_Requested::Data            0                       # Table walker requests started/completed, data/inst
system.cpu.itb.stage2_mmu.stage2_tlb.walker.requestOrigin_Requested::Inst            0                       # Table walker requests started/completed, data/inst
system.cpu.itb.stage2_mmu.stage2_tlb.walker.requestOrigin_Requested::total            0                       # Table walker requests started/completed, data/inst
system.cpu.itb.stage2_mmu.stage2_tlb.walker.requestOrigin_Completed::Data            0                       # Table walker requests started/completed, data/inst
system.cpu.itb.stage2_mmu.stage2_tlb.walker.requestOrigin_Completed::Inst            0                       # Table walker requests started/completed, data/inst
system.cpu.itb.stage2_mmu.stage2_tlb.walker.requestOrigin_Completed::total            0                       # Table walker requests started/completed, data/inst
system.cpu.itb.stage2_mmu.stage2_tlb.walker.requestOrigin::total            0                       # Table walker requests started/completed, data/inst
system.cpu.itb.stage2_mmu.stage2_tlb.walker.power_state.pwrStateResidencyTicks::UNDEFINED     86666000                       # Cumulative time (in ticks) in various power states
system.cpu.itb.walker.walks                         0                       # Table walker walks requested
system.cpu.itb.walker.requestOrigin_Requested::Data            0                       # Table walker requests started/completed, data/inst
system.cpu.itb.walker.requestOrigin_Requested::Inst            0                       # Table walker requests started/completed, data/inst
system.cpu.itb.walker.requestOrigin_Requested::total            0                       # Table walker requests started/completed, data/inst
system.cpu.itb.walker.requestOrigin_Completed::Data            0                       # Table walker requests started/completed, data/inst
system.cpu.itb.walker.requestOrigin_Completed::Inst            0                       # Table walker requests started/completed, data/inst
system.cpu.itb.walker.requestOrigin_Completed::total            0                       # Table walker requests started/completed, data/inst
system.cpu.itb.walker.requestOrigin::total            0                       # Table walker requests started/completed, data/inst
system.cpu.itb.walker.power_state.pwrStateResidencyTicks::UNDEFINED     86666000                       # Cumulative time (in ticks) in various power states
system.cpu.power_state.pwrStateResidencyTicks::ON     86666000                       # Cumulative time (in ticks) in various power states
system.cpu.thread_0.numInsts                    15426                       # Number of Instructions committed
system.cpu.thread_0.numOps                      17266                       # Number of Ops committed
system.cpu.thread_0.numMemRefs                      0                       # Number of Memory References
system.cpu_clk_domain.clock                      1000                       # Clock period in ticks
system.cpu_voltage_domain.voltage                   1                       # Voltage in Volts
system.l2.demand_hits::.cpu.inst                   55                       # number of demand (read+write) hits
system.l2.demand_hits::.cpu.data                   37                       # number of demand (read+write) hits
system.l2.demand_hits::total                       92                       # number of demand (read+write) hits
system.l2.overall_hits::.cpu.inst                  55                       # number of overall hits
system.l2.overall_hits::.cpu.data                  37                       # number of overall hits
system.l2.overall_hits::total                      92                       # number of overall hits
system.l2.demand_misses::.cpu.inst                538                       # number of demand (read+write) misses
system.l2.demand_misses::.cpu.data                208                       # number of demand (read+write) misses
system.l2.demand_misses::total                    746                       # number of demand (read+write) misses
system.l2.overall_misses::.cpu.inst               538                       # number of overall misses
system.l2.overall_misses::.cpu.data               208                       # number of overall misses
system.l2.overall_misses::total                   746                       # number of overall misses
system.l2.demand_miss_latency::.cpu.inst     52613000                       # number of demand (read+write) miss cycles
system.l2.demand_miss_latency::.cpu.data     21489000                       # number of demand (read+write) miss cycles
system.l2.demand_miss_latency::total         74102000                       # number of demand (read+write) miss cycles
system.l2.overall_miss_latency::.cpu.inst     52613000                       # number of overall miss cycles
system.l2.overall_miss_latency::.cpu.data     21489000                       # number of overall miss cycles
system.l2.overall_miss_latency::total        74102000                       # number of overall miss cycles
system.l2.demand_accesses::.cpu.inst              593                       # number of demand (read+write) accesses
system.l2.demand_accesses::.cpu.data              245                       # number of demand (read+write) accesses
system.l2.demand_accesses::total                  838                       # number of demand (read+write) accesses
system.l2.overall_accesses::.cpu.inst             593                       # number of overall (read+write) accesses
system.l2.overall_accesses::.cpu.data             245                       # number of overall (read+write) accesses
system.l2.overall_accesses::total                 838                       # number of overall (read+write) accesses
system.l2.demand_miss_rate::.cpu.inst        0.907251                       # miss rate for demand accesses
system.l2.demand_miss_rate::.cpu.data        0.848980                       # miss rate for demand accesses
system.l2.demand_miss_rate::total            0.890215                       # miss rate for demand accesses
system.l2.overall_miss_rate::.cpu.inst       0.907251                       # miss rate for overall accesses
system.l2.overall_miss_rate::.cpu.data       0.848980                       # miss rate for overall accesses
system.l2.overall_miss_rate::total           0.890215                       # miss rate for overall accesses
system.l2.demand_avg_miss_latency::.cpu.inst 97793.680297                       # average overall miss latency
system.l2.demand_avg_miss_latency::.cpu.data 103312.500000                       # average overall miss latency
system.l2.demand_avg_miss_latency::total 99332.439678                       # average overall miss latency
system.l2.overall_avg_miss_latency::.cpu.inst 97793.680297                       # average overall miss latency
system.l2.overall_avg_miss_latency::.cpu.data 103312.500000                       # average overall miss latency
system.l2.overall_avg_miss_latency::total 99332.439678                       # average overall miss latency
system.l2.blocked_cycles::no_mshrs                  0                       # number of cycles access was blocked
system.l2.blocked_cycles::no_targets                0                       # number of cycles access was blocked
system.l2.blocked::no_mshrs                         0                       # number of cycles access was blocked
system.l2.blocked::no_targets                       0                       # number of cycles access was blocked
system.l2.avg_blocked_cycles::no_mshrs            nan                       # average number of cycles each access was blocked
system.l2.avg_blocked_cycles::no_targets          nan                       # average number of cycles each access was blocked
system.l2.demand_mshr_hits::.cpu.inst               1                       # number of demand (read+write) MSHR hits
system.l2.demand_mshr_hits::.cpu.data               5                       # number of demand (read+write) MSHR hits
system.l2.demand_mshr_hits::total                   6                       # number of demand (read+write) MSHR hits
system.l2.overall_mshr_hits::.cpu.inst              1                       # number of overall MSHR hits
system.l2.overall_mshr_hits::.cpu.data              5                       # number of overall MSHR hits
system.l2.overall_mshr_hits::total                  6                       # number of overall MSHR hits
system.l2.demand_mshr_misses::.cpu.inst           537                       # number of demand (read+write) MSHR misses
system.l2.demand_mshr_misses::.cpu.data           203                       # number of demand (read+write) MSHR misses
system.l2.demand_mshr_misses::total               740                       # number of demand (read+write) MSHR misses
system.l2.overall_mshr_misses::.cpu.inst          537                       # number of overall MSHR misses
system.l2.overall_mshr_misses::.cpu.data          203                       # number of overall MSHR misses
system.l2.overall_mshr_misses::total              740                       # number of overall MSHR misses
system.l2.demand_mshr_miss_latency::.cpu.inst     41789000                       # number of demand (read+write) MSHR miss cycles
system.l2.demand_mshr_miss_latency::.cpu.data     17024000                       # number of demand (read+write) MSHR miss cycles
system.l2.demand_mshr_miss_latency::total     58813000                       # number of demand (read+write) MSHR miss cycles
system.l2.overall_mshr_miss_latency::.cpu.inst     41789000                       # number of overall MSHR miss cycles
system.l2.overall_mshr_miss_latency::.cpu.data     17024000                       # number of overall MSHR miss cycles
system.l2.overall_mshr_miss_latency::total     58813000                       # number of overall MSHR miss cycles
system.l2.demand_mshr_miss_rate::.cpu.inst     0.905565                       # mshr miss rate for demand accesses
system.l2.demand_mshr_miss_rate::.cpu.data     0.828571                       # mshr miss rate for demand accesses
system.l2.demand_mshr_miss_rate::total       0.883055                       # mshr miss rate for demand accesses
system.l2.overall_mshr_miss_rate::.cpu.inst     0.905565                       # mshr miss rate for overall accesses
system.l2.overall_mshr_miss_rate::.cpu.data     0.828571                       # mshr miss rate for overall accesses
system.l2.overall_mshr_miss_rate::total      0.883055                       # mshr miss rate for overall accesses
system.l2.demand_avg_mshr_miss_latency::.cpu.inst 77819.366853                       # average overall mshr miss latency
system.l2.demand_avg_mshr_miss_latency::.cpu.data 83862.068966                       # average overall mshr miss latency
system.l2.demand_avg_mshr_miss_latency::total 79477.027027                       # average overall mshr miss latency
system.l2.overall_avg_mshr_miss_latency::.cpu.inst 77819.366853                       # average overall mshr miss latency
system.l2.overall_avg_mshr_miss_latency::.cpu.data 83862.068966                       # average overall mshr miss latency
system.l2.overall_avg_mshr_miss_latency::total 79477.027027                       # average overall mshr miss latency
system.l2.replacements                              0                       # number of replacements
system.l2.WritebackDirty_hits::.writebacks           25                       # number of WritebackDirty hits
system.l2.WritebackDirty_hits::total               25                       # number of WritebackDirty hits
system.l2.WritebackDirty_accesses::.writebacks           25                       # number of WritebackDirty accesses(hits+misses)
system.l2.WritebackDirty_accesses::total           25                       # number of WritebackDirty accesses(hits+misses)
system.l2.WritebackClean_hits::.writebacks          121                       # number of WritebackClean hits
system.l2.WritebackClean_hits::total              121                       # number of WritebackClean hits
system.l2.WritebackClean_accesses::.writebacks          121                       # number of WritebackClean accesses(hits+misses)
system.l2.WritebackClean_accesses::total          121                       # number of WritebackClean accesses(hits+misses)
system.l2.ReadExReq_hits::.cpu.data                 6                       # number of ReadExReq hits
system.l2.ReadExReq_hits::total                     6                       # number of ReadExReq hits
system.l2.ReadExReq_misses::.cpu.data              78                       # number of ReadExReq misses
system.l2.ReadExReq_misses::total                  78                       # number of ReadExReq misses
system.l2.ReadExReq_miss_latency::.cpu.data      7867000                       # number of ReadExReq miss cycles
system.l2.ReadExReq_miss_latency::total       7867000                       # number of ReadExReq miss cycles
system.l2.ReadExReq_accesses::.cpu.data            84                       # number of ReadExReq accesses(hits+misses)
system.l2.ReadExReq_accesses::total                84                       # number of ReadExReq accesses(hits+misses)
system.l2.ReadExReq_miss_rate::.cpu.data     0.928571                       # miss rate for ReadExReq accesses
system.l2.ReadExReq_miss_rate::total         0.928571                       # miss rate for ReadExReq accesses
system.l2.ReadExReq_avg_miss_latency::.cpu.data 100858.974359                       # average ReadExReq miss latency
system.l2.ReadExReq_avg_miss_latency::total 100858.974359                       # average ReadExReq miss latency
system.l2.ReadExReq_mshr_misses::.cpu.data           78                       # number of ReadExReq MSHR misses
system.l2.ReadExReq_mshr_misses::total             78                       # number of ReadExReq MSHR misses
system.l2.ReadExReq_mshr_miss_latency::.cpu.data      6307000                       # number of ReadExReq MSHR miss cycles
system.l2.ReadExReq_mshr_miss_latency::total      6307000                       # number of ReadExReq MSHR miss cycles
system.l2.ReadExReq_mshr_miss_rate::.cpu.data     0.928571                       # mshr miss rate for ReadExReq accesses
system.l2.ReadExReq_mshr_miss_rate::total     0.928571                       # mshr miss rate for ReadExReq accesses
system.l2.ReadExReq_avg_mshr_miss_latency::.cpu.data 80858.974359                       # average ReadExReq mshr miss latency
system.l2.ReadExReq_avg_mshr_miss_latency::total 80858.974359                       # average ReadExReq mshr miss latency
system.l2.ReadCleanReq_hits::.cpu.inst             55                       # number of ReadCleanReq hits
system.l2.ReadCleanReq_hits::total                 55                       # number of ReadCleanReq hits
system.l2.ReadCleanReq_misses::.cpu.inst          538                       # number of ReadCleanReq misses
system.l2.ReadCleanReq_misses::total              538                       # number of ReadCleanReq misses
system.l2.ReadCleanReq_miss_latency::.cpu.inst     52613000                       # number of ReadCleanReq miss cycles
system.l2.ReadCleanReq_miss_latency::total     52613000                       # number of ReadCleanReq miss cycles
system.l2.ReadCleanReq_accesses::.cpu.inst          593                       # number of ReadCleanReq accesses(hits+misses)
system.l2.ReadCleanReq_accesses::total            593                       # number of ReadCleanReq accesses(hits+misses)
system.l2.ReadCleanReq_miss_rate::.cpu.inst     0.907251                       # miss rate for ReadCleanReq accesses
system.l2.ReadCleanReq_miss_rate::total      0.907251                       # miss rate for ReadCleanReq accesses
system.l2.ReadCleanReq_avg_miss_latency::.cpu.inst 97793.680297                       # average ReadCleanReq miss latency
system.l2.ReadCleanReq_avg_miss_latency::total 97793.680297                       # average ReadCleanReq miss latency
system.l2.ReadCleanReq_mshr_hits::.cpu.inst            1                       # number of ReadCleanReq MSHR hits
system.l2.ReadCleanReq_mshr_hits::total             1                       # number of ReadCleanReq MSHR hits
system.l2.ReadCleanReq_mshr_misses::.cpu.inst          537                       # number of ReadCleanReq MSHR misses
system.l2.ReadCleanReq_mshr_misses::total          537                       # number of ReadCleanReq MSHR misses
system.l2.ReadCleanReq_mshr_miss_latency::.cpu.inst     41789000                       # number of ReadCleanReq MSHR miss cycles
system.l2.ReadCleanReq_mshr_miss_latency::total     41789000                       # number of ReadCleanReq MSHR miss cycles
system.l2.ReadCleanReq_mshr_miss_rate::.cpu.inst     0.905565                       # mshr miss rate for ReadCleanReq accesses
system.l2.ReadCleanReq_mshr_miss_rate::total     0.905565                       # mshr miss rate for ReadCleanReq accesses
system.l2.ReadCleanReq_avg_mshr_miss_latency::.cpu.inst 77819.366853                       # average ReadCleanReq mshr miss latency
system.l2.ReadCleanReq_avg_mshr_miss_latency::total 77819.366853                       # average ReadCleanReq mshr miss latency
system.l2.ReadSharedReq_hits::.cpu.data            31                       # number of ReadSharedReq hits
system.l2.ReadSharedReq_hits::total                31                       # number of ReadSharedReq hits
system.l2.ReadSharedReq_misses::.cpu.data          130                       # number of ReadSharedReq misses
system.l2.ReadSharedReq_misses::total             130                       # number of ReadSharedReq misses
system.l2.ReadSharedReq_miss_latency::.cpu.data     13622000                       # number of ReadSharedReq miss cycles
system.l2.ReadSharedReq_miss_latency::total     13622000                       # number of ReadSharedReq miss cycles
system.l2.ReadSharedReq_accesses::.cpu.data          161                       # number of ReadSharedReq accesses(hits+misses)
system.l2.ReadSharedReq_accesses::total           161                       # number of ReadSharedReq accesses(hits+misses)
system.l2.ReadSharedReq_miss_rate::.cpu.data     0.807453                       # miss rate for ReadSharedReq accesses
system.l2.ReadSharedReq_miss_rate::total     0.807453                       # miss rate for ReadSharedReq accesses
system.l2.ReadSharedReq_avg_miss_latency::.cpu.data 104784.615385                       # average ReadSharedReq miss latency
system.l2.ReadSharedReq_avg_miss_latency::total 104784.615385                       # average ReadSharedReq miss latency
system.l2.ReadSharedReq_mshr_hits::.cpu.data            5                       # number of ReadSharedReq MSHR hits
system.l2.ReadSharedReq_mshr_hits::total            5                       # number of ReadSharedReq MSHR hits
system.l2.ReadSharedReq_mshr_misses::.cpu.data          125                       # number of ReadSharedReq MSHR misses
system.l2.ReadSharedReq_mshr_misses::total          125                       # number of ReadSharedReq MSHR misses
system.l2.ReadSharedReq_mshr_miss_latency::.cpu.data     10717000                       # number of ReadSharedReq MSHR miss cycles
system.l2.ReadSharedReq_mshr_miss_latency::total     10717000                       # number of ReadSharedReq MSHR miss cycles
system.l2.ReadSharedReq_mshr_miss_rate::.cpu.data     0.776398                       # mshr miss rate for ReadSharedReq accesses
system.l2.ReadSharedReq_mshr_miss_rate::total     0.776398                       # mshr miss rate for ReadSharedReq accesses
system.l2.ReadSharedReq_avg_mshr_miss_latency::.cpu.data        85736                       # average ReadSharedReq mshr miss latency
system.l2.ReadSharedReq_avg_mshr_miss_latency::total        85736                       # average ReadSharedReq mshr miss latency
system.l2.power_state.pwrStateResidencyTicks::UNDEFINED     86666000                       # Cumulative time (in ticks) in various power states
system.l2.tags.tagsinuse                   392.653640                       # Cycle average of tags in use
system.l2.tags.total_refs                        1006                       # Total number of references to valid blocks.
system.l2.tags.sampled_refs                       740                       # Sample count of references to valid blocks.
system.l2.tags.avg_refs                      1.359459                       # Average number of references to valid blocks.
system.l2.tags.warmup_cycle                     87000                       # Cycle when the warmup percentage was hit.
system.l2.tags.occ_blocks::.cpu.inst       274.613785                       # Average occupied blocks per requestor
system.l2.tags.occ_blocks::.cpu.data       118.039855                       # Average occupied blocks per requestor
system.l2.tags.occ_percent::.cpu.inst        0.008381                       # Average percentage of cache occupancy
system.l2.tags.occ_percent::.cpu.data        0.003602                       # Average percentage of cache occupancy
system.l2.tags.occ_percent::total            0.011983                       # Average percentage of cache occupancy
system.l2.tags.occ_task_id_blocks::1024           740                       # Occupied blocks per task id
system.l2.tags.age_task_id_blocks_1024::0           81                       # Occupied blocks per task id
system.l2.tags.age_task_id_blocks_1024::1          659                       # Occupied blocks per task id
system.l2.tags.occ_task_id_percent::1024     0.022583                       # Percentage of cache occupancy per task id
system.l2.tags.tag_accesses                      2764                       # Number of tag accesses
system.l2.tags.data_accesses                     2764                       # Number of data accesses
system.l2.tags.power_state.pwrStateResidencyTicks::UNDEFINED     86666000                       # Cumulative time (in ticks) in various power states
system.mem_ctrls.avgPriority_.cpu.inst::samples       537.00                       # Average QoS priority value for accepted requests
system.mem_ctrls.avgPriority_.cpu.data::samples       203.00                       # Average QoS priority value for accepted requests
system.mem_ctrls.priorityMinLatency      0.000000018750                       # per QoS priority minimum request to response latency (s)
system.mem_ctrls.priorityMaxLatency      0.000000578500                       # per QoS priority maximum request to response latency (s)
system.mem_ctrls.numReadWriteTurnArounds            0                       # Number of turnarounds from READ to WRITE
system.mem_ctrls.numWriteReadTurnArounds            0                       # Number of turnarounds from WRITE to READ
system.mem_ctrls.numStayReadState                1495                       # Number of times bus staying in READ state
system.mem_ctrls.numStayWriteState                  0                       # Number of times bus staying in WRITE state
system.mem_ctrls.readReqs                         740                       # Number of read requests accepted
system.mem_ctrls.writeReqs                          0                       # Number of write requests accepted
system.mem_ctrls.readBursts                       740                       # Number of controller read bursts, including those serviced by the write queue
system.mem_ctrls.writeBursts                        0                       # Number of controller write bursts, including those merged in the write queue
system.mem_ctrls.servicedByWrQ                      0                       # Number of controller read bursts serviced by the write queue
system.mem_ctrls.mergedWrBursts                     0                       # Number of controller write bursts merged with an existing one
system.mem_ctrls.neitherReadNorWriteReqs            0                       # Number of requests that are neither read nor write
system.mem_ctrls.avgRdQLen                       1.14                       # Average read queue length when enqueuing
system.mem_ctrls.avgWrQLen                       0.00                       # Average write queue length when enqueuing
system.mem_ctrls.numRdRetry                         0                       # Number of times read queue was full causing retry
system.mem_ctrls.numWrRetry                         0                       # Number of times write queue was full causing retry
system.mem_ctrls.readPktSize::0                     0                       # Read request sizes (log2)
system.mem_ctrls.readPktSize::1                     0                       # Read request sizes (log2)
system.mem_ctrls.readPktSize::2                     0                       # Read request sizes (log2)
system.mem_ctrls.readPktSize::3                     0                       # Read request sizes (log2)
system.mem_ctrls.readPktSize::4                     0                       # Read request sizes (log2)
system.mem_ctrls.readPktSize::5                     0                       # Read request sizes (log2)
system.mem_ctrls.readPktSize::6                   740                       # Read request sizes (log2)
system.mem_ctrls.writePktSize::0                    0                       # Write request sizes (log2)
system.mem_ctrls.writePktSize::1                    0                       # Write request sizes (log2)
system.mem_ctrls.writePktSize::2                    0                       # Write request sizes (log2)
system.mem_ctrls.writePktSize::3                    0                       # Write request sizes (log2)
system.mem_ctrls.writePktSize::4                    0                       # Write request sizes (log2)
system.mem_ctrls.writePktSize::5                    0                       # Write request sizes (log2)
system.mem_ctrls.writePktSize::6                    0                       # Write request sizes (log2)
[...]
system.mem_ctrls.dram.bw_read::.cpu.data    149908845                       # Total read bandwidth from this memory (bytes/s)
system.mem_ctrls.dram.bw_read::total        546465742                       # Total read bandwidth from this memory (bytes/s)
system.mem_ctrls.dram.bw_inst_read::.cpu.inst    396556897                       # Instruction read bandwidth from this memory (bytes/s)
system.mem_ctrls.dram.bw_inst_read::total    396556897                       # Instruction read bandwidth from this memory (bytes/s)
system.mem_ctrls.dram.bw_total::.cpu.inst    396556897                       # Total bandwidth to/from this memory (bytes/s)
system.mem_ctrls.dram.bw_total::.cpu.data    149908845                       # Total bandwidth to/from this memory (bytes/s)
system.mem_ctrls.dram.bw_total::total       546465742                       # Total bandwidth to/from this memory (bytes/s)
system.mem_ctrls.dram.readBursts                  740                       # Number of DRAM read bursts
system.mem_ctrls.dram.writeBursts                   0                       # Number of DRAM write bursts
system.mem_ctrls.dram.perBankRdBursts::0           36                       # Per bank write bursts
system.mem_ctrls.dram.perBankRdBursts::1           81                       # Per bank write bursts
system.mem_ctrls.dram.perBankRdBursts::2           67                       # Per bank write bursts
system.mem_ctrls.dram.perBankRdBursts::3           34                       # Per bank write bursts
system.mem_ctrls.dram.perBankRdBursts::4           34                       # Per bank write bursts
system.mem_ctrls.dram.perBankRdBursts::5           56                       # Per bank write bursts
system.mem_ctrls.dram.perBankRdBursts::6           17                       # Per bank write bursts
system.mem_ctrls.dram.perBankRdBursts::7           18                       # Per bank write bursts
system.mem_ctrls.dram.perBankRdBursts::8           34                       # Per bank write bursts
system.mem_ctrls.dram.perBankRdBursts::9           94                       # Per bank write bursts
system.mem_ctrls.dram.perBankRdBursts::10           59                       # Per bank write bursts
system.mem_ctrls.dram.perBankRdBursts::11           78                       # Per bank write bursts
system.mem_ctrls.dram.perBankRdBursts::12           59                       # Per bank write bursts
system.mem_ctrls.dram.perBankRdBursts::13           27                       # Per bank write bursts
system.mem_ctrls.dram.perBankRdBursts::14            6                       # Per bank write bursts
system.mem_ctrls.dram.perBankRdBursts::15           40                       # Per bank write bursts
system.mem_ctrls.dram.perBankWrBursts::0            0                       # Per bank write bursts
system.mem_ctrls.dram.perBankWrBursts::1            0                       # Per bank write bursts
system.mem_ctrls.dram.perBankWrBursts::2            0                       # Per bank write bursts
system.mem_ctrls.dram.perBankWrBursts::3            0                       # Per bank write bursts
system.mem_ctrls.dram.perBankWrBursts::4            0                       # Per bank write bursts
system.mem_ctrls.dram.perBankWrBursts::5            0                       # Per bank write bursts
system.mem_ctrls.dram.perBankWrBursts::6            0                       # Per bank write bursts
system.mem_ctrls.dram.perBankWrBursts::7            0                       # Per bank write bursts
system.mem_ctrls.dram.perBankWrBursts::8            0                       # Per bank write bursts
system.mem_ctrls.dram.perBankWrBursts::9            0                       # Per bank write bursts
system.mem_ctrls.dram.perBankWrBursts::10            0                       # Per bank write bursts
system.mem_ctrls.dram.perBankWrBursts::11            0                       # Per bank write bursts
system.mem_ctrls.dram.perBankWrBursts::12            0                       # Per bank write bursts
system.mem_ctrls.dram.perBankWrBursts::13            0                       # Per bank write bursts
system.mem_ctrls.dram.perBankWrBursts::14            0                       # Per bank write bursts
system.mem_ctrls.dram.perBankWrBursts::15            0                       # Per bank write bursts
system.mem_ctrls.dram.totQLat                 6953500                       # Total ticks spent queuing
system.mem_ctrls.dram.totBusLat               3700000                       # Total ticks spent in databus transfers
system.mem_ctrls.dram.totMemAccLat           20828500                       # Total ticks spent from burst creation until serviced by the DRAM
system.mem_ctrls.dram.avgQLat                 9396.62                       # Average queueing delay per DRAM burst
system.mem_ctrls.dram.avgBusLat               5000.00                       # Average bus latency per DRAM burst
system.mem_ctrls.dram.avgMemAccLat           28146.62                       # Average memory access latency per DRAM burst
system.mem_ctrls.dram.readRowHits                 569                       # Number of row buffer hits during reads
system.mem_ctrls.dram.writeRowHits                  0                       # Number of row buffer hits during writes
system.mem_ctrls.dram.readRowHitRate            76.89                       # Row buffer hit rate for reads
system.mem_ctrls.dram.writeRowHitRate             nan                       # Row buffer hit rate for writes
system.mem_ctrls.dram.bytesPerActivate::samples          169                       # Bytes accessed per row activation
system.mem_ctrls.dram.bytesPerActivate::mean   277.964497                       # Bytes accessed per row activation
system.mem_ctrls.dram.bytesPerActivate::gmean   183.759973                       # Bytes accessed per row activation
system.mem_ctrls.dram.bytesPerActivate::stdev   277.044304                       # Bytes accessed per row activation
system.mem_ctrls.dram.bytesPerActivate::0-127           49     28.99%     28.99% # Bytes accessed per row activation
system.mem_ctrls.dram.bytesPerActivate::128-255           54     31.95%     60.95% # Bytes accessed per row activation
system.mem_ctrls.dram.bytesPerActivate::256-383           28     16.57%     77.51% # Bytes accessed per row activation
system.mem_ctrls.dram.bytesPerActivate::384-511            8      4.73%     82.25% # Bytes accessed per row activation
system.mem_ctrls.dram.bytesPerActivate::512-639            8      4.73%     86.98% # Bytes accessed per row activation
system.mem_ctrls.dram.bytesPerActivate::640-767            1      0.59%     87.57% # Bytes accessed per row activation
system.mem_ctrls.dram.bytesPerActivate::768-895            7      4.14%     91.72% # Bytes accessed per row activation
system.mem_ctrls.dram.bytesPerActivate::896-1023            4      2.37%     94.08% # Bytes accessed per row activation
system.mem_ctrls.dram.bytesPerActivate::1024-1151           10      5.92%    100.00% # Bytes accessed per row activation
system.mem_ctrls.dram.bytesPerActivate::total          169                       # Bytes accessed per row activation
system.mem_ctrls.dram.bytesRead                 47360                       # Total number of bytes read from DRAM
system.mem_ctrls.dram.bytesWritten                  0                       # Total number of bytes written to DRAM
system.mem_ctrls.dram.avgRdBW              546.465742                       # Average DRAM read bandwidth in MiBytes/s
system.mem_ctrls.dram.avgWrBW                       0                       # Average DRAM write bandwidth in MiBytes/s
system.mem_ctrls.dram.peakBW                 12800.00                       # Theoretical peak bandwidth in MiByte/s
system.mem_ctrls.dram.busUtil                    4.27                       # Data bus utilization in percentage
system.mem_ctrls.dram.busUtilRead                4.27                       # Data bus utilization in percentage for reads
system.mem_ctrls.dram.busUtilWrite               0.00                       # Data bus utilization in percentage for writes
system.mem_ctrls.dram.pageHitRate               76.89                       # Row buffer hit rate, read and write combined
system.mem_ctrls.dram.power_state.pwrStateResidencyTicks::UNDEFINED     86666000                       # Cumulative time (in ticks) in various power states
system.mem_ctrls.dram.rank0.actEnergy          628320                       # Energy for activate commands per rank (pJ)
system.mem_ctrls.dram.rank0.preEnergy          333960                       # Energy for precharge commands per rank (pJ)
system.mem_ctrls.dram.rank0.readEnergy        2449020                       # Energy for read commands per rank (pJ)
system.mem_ctrls.dram.rank0.writeEnergy             0                       # Energy for write commands per rank (pJ)
system.mem_ctrls.dram.rank0.refreshEnergy 6761040.000000                       # Energy for refresh commands per rank (pJ)
system.mem_ctrls.dram.rank0.actBackEnergy     34915920                       # Energy for active background per rank (pJ)
system.mem_ctrls.dram.rank0.preBackEnergy      3876960                       # Energy for precharge background per rank (pJ)
system.mem_ctrls.dram.rank0.actPowerDownEnergy            0                       # Energy for active power-down per rank (pJ)
system.mem_ctrls.dram.rank0.prePowerDownEnergy            0                       # Energy for precharge power-down per rank (pJ)
system.mem_ctrls.dram.rank0.selfRefreshEnergy            0                       # Energy for self refresh per rank (pJ)
system.mem_ctrls.dram.rank0.totalEnergy      48965220                       # Total energy per rank (pJ)
system.mem_ctrls.dram.rank0.averagePower   564.987654                       # Core power per rank (mW)
system.mem_ctrls.dram.rank0.totalIdleTime            0                       # Total Idle time Per DRAM Rank
system.mem_ctrls.dram.rank0.pwrStateTime::IDLE      9790000                       # Time in different power states
system.mem_ctrls.dram.rank0.pwrStateTime::REF      2860000                       # Time in different power states
system.mem_ctrls.dram.rank0.pwrStateTime::SREF            0                       # Time in different power states
system.mem_ctrls.dram.rank0.pwrStateTime::PRE_PDN            0                       # Time in different power states
system.mem_ctrls.dram.rank0.pwrStateTime::ACT     74016000                       # Time in different power states
system.mem_ctrls.dram.rank0.pwrStateTime::ACT_PDN            0                       # Time in different power states
system.mem_ctrls.dram.rank1.actEnergy          592620                       # Energy for activate commands per rank (pJ)
system.mem_ctrls.dram.rank1.preEnergy          307395                       # Energy for precharge commands per rank (pJ)
system.mem_ctrls.dram.rank1.readEnergy        2834580                       # Energy for read commands per rank (pJ)
system.mem_ctrls.dram.rank1.writeEnergy             0                       # Energy for write commands per rank (pJ)
system.mem_ctrls.dram.rank1.refreshEnergy 6761040.000000                       # Energy for refresh commands per rank (pJ)
system.mem_ctrls.dram.rank1.actBackEnergy     36279360                       # Energy for active background per rank (pJ)
system.mem_ctrls.dram.rank1.preBackEnergy      2728800                       # Energy for precharge background per rank (pJ)
system.mem_ctrls.dram.rank1.actPowerDownEnergy            0                       # Energy for active power-down per rank (pJ)
system.mem_ctrls.dram.rank1.prePowerDownEnergy            0                       # Energy for precharge power-down per rank (pJ)
system.mem_ctrls.dram.rank1.selfRefreshEnergy            0                       # Energy for self refresh per rank (pJ)
system.mem_ctrls.dram.rank1.totalEnergy      49503795                       # Total energy per rank (pJ)
system.mem_ctrls.dram.rank1.averagePower   571.202028                       # Core power per rank (mW)
system.mem_ctrls.dram.rank1.totalIdleTime            0                       # Total Idle time Per DRAM Rank
system.mem_ctrls.dram.rank1.pwrStateTime::IDLE      6786750                       # Time in different power states
system.mem_ctrls.dram.rank1.pwrStateTime::REF      2860000                       # Time in different power states
system.mem_ctrls.dram.rank1.pwrStateTime::SREF            0                       # Time in different power states
system.mem_ctrls.dram.rank1.pwrStateTime::PRE_PDN            0                       # Time in different power states
system.mem_ctrls.dram.rank1.pwrStateTime::ACT     77019250                       # Time in different power states
system.mem_ctrls.dram.rank1.pwrStateTime::ACT_PDN            0                       # Time in different power states
system.mem_ctrls.power_state.pwrStateResidencyTicks::UNDEFINED     86666000                       # Cumulative time (in ticks) in various power states
system.membus.trans_dist::ReadResp                662                       # Transaction distribution
system.membus.trans_dist::ReadExReq                78                       # Transaction distribution
system.membus.trans_dist::ReadExResp               78                       # Transaction distribution
system.membus.trans_dist::ReadSharedReq           662                       # Transaction distribution
system.membus.pkt_count_system.l2.mem_side_port::system.mem_ctrls.port         1480                       # Packet count per connected requestor and responder (bytes)
system.membus.pkt_count::total                   1480                       # Packet count per connected requestor and responder (bytes)
system.membus.pkt_size_system.l2.mem_side_port::system.mem_ctrls.port        47360                       # Cumulative packet size per connected requestor and responder (bytes)
system.membus.pkt_size::total                   47360                       # Cumulative packet size per connected requestor and responder (bytes)
system.membus.snoops                                0                       # Total snoops (count)
system.membus.snoopTraffic                          0                       # Total snoop traffic (bytes)
system.membus.snoop_fanout::samples               740                       # Request fanout histogram
system.membus.snoop_fanout::mean                    0                       # Request fanout histogram
system.membus.snoop_fanout::stdev                   0                       # Request fanout histogram
system.membus.snoop_fanout::underflows              0      0.00%      0.00% # Request fanout histogram
system.membus.snoop_fanout::0                     740    100.00%    100.00% # Request fanout histogram
system.membus.snoop_fanout::1                       0      0.00%    100.00% # Request fanout histogram
system.membus.snoop_fanout::overflows               0      0.00%    100.00% # Request fanout histogram
system.membus.snoop_fanout::min_value               0                       # Request fanout histogram
system.membus.snoop_fanout::max_value               0                       # Request fanout histogram
system.membus.snoop_fanout::total                 740                       # Request fanout histogram
system.membus.power_state.pwrStateResidencyTicks::UNDEFINED     86666000                       # Cumulative time (in ticks) in various power states
system.membus.reqLayer0.occupancy              740000                       # Layer occupancy (ticks)
system.membus.reqLayer0.utilization               0.9                       # Layer utilization (%)
system.membus.respLayer1.occupancy            3935250                       # Layer occupancy (ticks)
system.membus.respLayer1.utilization              4.5                       # Layer utilization (%)
system.tol2bus.trans_dist::ReadResp               754                       # Transaction distribution
system.tol2bus.trans_dist::WritebackDirty           25                       # Transaction distribution
system.tol2bus.trans_dist::WritebackClean          126                       # Transaction distribution
system.tol2bus.trans_dist::CleanEvict              32                       # Transaction distribution
system.tol2bus.trans_dist::ReadExReq               84                       # Transaction distribution
system.tol2bus.trans_dist::ReadExResp              84                       # Transaction distribution
system.tol2bus.trans_dist::ReadCleanReq           593                       # Transaction distribution
system.tol2bus.trans_dist::ReadSharedReq          161                       # Transaction distribution
system.tol2bus.pkt_count_system.cpu.icache.mem_side_port::system.l2.cpu_side_port         1312                       # Packet count per connected requestor and responder (bytes)
system.tol2bus.pkt_count_system.cpu.dcache.mem_side_port::system.l2.cpu_side_port          547                       # Packet count per connected requestor and responder (bytes)
system.tol2bus.pkt_count::total                  1859                       # Packet count per connected requestor and responder (bytes)
system.tol2bus.pkt_size_system.cpu.icache.mem_side_port::system.l2.cpu_side_port        46016                       # Cumulative packet size per connected requestor and responder (bytes)
system.tol2bus.pkt_size_system.cpu.dcache.mem_side_port::system.l2.cpu_side_port        17280                       # Cumulative packet size per connected requestor and responder (bytes)
system.tol2bus.pkt_size::total                  63296                       # Cumulative packet size per connected requestor and responder (bytes)
system.tol2bus.snoops                               0                       # Total snoops (count)
system.tol2bus.snoopTraffic                         0                       # Total snoop traffic (bytes)
system.tol2bus.snoop_fanout::samples              838                       # Request fanout histogram
system.tol2bus.snoop_fanout::mean            0.039379                       # Request fanout histogram
system.tol2bus.snoop_fanout::stdev           0.194612                       # Request fanout histogram
system.tol2bus.snoop_fanout::underflows             0      0.00%      0.00% # Request fanout histogram
system.tol2bus.snoop_fanout::0                    805     96.06%     96.06% # Request fanout histogram
system.tol2bus.snoop_fanout::1                     33      3.94%    100.00% # Request fanout histogram
system.tol2bus.snoop_fanout::2                      0      0.00%    100.00% # Request fanout histogram
system.tol2bus.snoop_fanout::overflows              0      0.00%    100.00% # Request fanout histogram
system.tol2bus.snoop_fanout::min_value              0                       # Request fanout histogram
system.tol2bus.snoop_fanout::max_value              1                       # Request fanout histogram
system.tol2bus.snoop_fanout::total                838                       # Request fanout histogram
system.tol2bus.power_state.pwrStateResidencyTicks::UNDEFINED     86666000                       # Cumulative time (in ticks) in various power states
system.tol2bus.reqLayer0.occupancy            1323000                       # Layer occupancy (ticks)
system.tol2bus.reqLayer0.utilization              1.5                       # Layer utilization (%)
system.tol2bus.respLayer0.occupancy           1779999                       # Layer occupancy (ticks)
system.tol2bus.respLayer0.utilization             2.1                       # Layer utilization (%)
system.tol2bus.respLayer1.occupancy            739995                       # Layer occupancy (ticks)
system.tol2bus.respLayer1.utilization             0.9                       # Layer utilization (%)
system.voltage_domain.voltage                       1                       # Voltage in Volts

---------- End Simulation Statistics   ----------
