
---------- Begin Simulation Statistics ----------
final_tick                                   43108200                       # Number of ticks from beginning of simulation (restored from checkpoints and never reset)
host_inst_rate                                  63283                       # Simulator instruction rate (inst/s)
host_mem_usage                                 657004                       # Number of bytes of host memory used
host_op_rate                                    75478                       # Simulator op (including micro ops) rate (op/s)
host_seconds                                     0.56                       # Real time elapsed on the host
host_tick_rate                               77016919                       # Simulator tick rate (ticks/s)
sim_freq                                 1000000000000                       # Frequency of simulated ticks
sim_insts                                       35400                       # Number of instructions simulated
sim_ops                                         42239                       # Number of ops (including micro ops) simulated
sim_seconds                                  0.000043                       # Number of seconds simulated
sim_ticks                                    43108200                       # Number of ticks simulated
system.cpu.committedInsts                       35400                       # Number of instructions committed
system.cpu.committedOps                         42239                       # Number of ops (including micro ops) committed
system.cpu.cpi                               6.088729                       # CPI: cycles per instruction
system.cpu.discardedOps                          2576                       # Number of ops (including micro ops) which were discarded before commit
system.cpu.idleCycles                          164602                       # Total number of cycles that the object has spent stopped
system.cpu.ipc                               0.164238                       # IPC: instructions per cycle
system.cpu.numCycles                           215541                       # number of cpu cycles simulated
system.cpu.numFetchSuspends                         0                       # Number of times Execute suspended instruction fetching
system.cpu.numWorkItemsCompleted                    0                       # number of work items this cpu completed
system.cpu.numWorkItemsStarted                      0                       # number of work items this cpu started
system.cpu.op_class_0::No_OpClass                   0      0.00%      0.00% # Class of committed instruction
system.cpu.op_class_0::IntAlu                   28379     67.19%     67.19% # Class of committed instruction
system.cpu.op_class_0::IntMult                    209      0.49%     67.68% # Class of committed instruction
system.cpu.op_class_0::IntDiv                       0      0.00%     67.68% # Class of committed instruction
system.cpu.op_class_0::FloatAdd                     0      0.00%     67.68% # Class of committed instruction
system.cpu.op_class_0::FloatCmp                     0      0.00%     67.68% # Class of committed instruction
system.cpu.op_class_0::FloatCvt                     0      0.00%     67.68% # Class of committed instruction
system.cpu.op_class_0::FloatMult                    0      0.00%     67.68% # Class of committed instruction
system.cpu.op_class_0::FloatMultAcc                 0      0.00%     67.68% # Class of committed instruction
system.cpu.op_class_0::FloatDiv                     0      0.00%     67.68% # Class of committed instruction
system.cpu.op_class_0::FloatMisc                    0      0.00%     67.68% # Class of committed instruction
system.cpu.op_class_0::FloatSqrt                    0      0.00%     67.68% # Class of committed instruction
system.cpu.op_class_0::SimdAdd                      0      0.00%     67.68% # Class of committed instruction
system.cpu.op_class_0::SimdAddAcc                   0      0.00%     67.68% # Class of committed instruction
system.cpu.op_class_0::SimdAlu                      0      0.00%     67.68% # Class of committed instruction
system.cpu.op_class_0::SimdCmp                      0      0.00%     67.68% # Class of committed instruction
system.cpu.op_class_0::SimdCvt                      0      0.00%     67.68% # Class of committed instruction
system.cpu.op_class_0::SimdMisc                     0      0.00%     67.68% # Class of committed instruction
system.cpu.op_class_0::SimdMult                     0      0.00%     67.68% # Class of committed instruction
system.cpu.op_class_0::SimdMultAcc                  0      0.00%     67.68% # Class of committed instruction
system.cpu.op_class_0::SimdShift                    0      0.00%     67.68% # Class of committed instruction
system.cpu.op_class_0::SimdShiftAcc                 0      0.00%     67.68% # Class of committed instruction
system.cpu.op_class_0::SimdDiv                      0      0.00%     67.68% # Class of committed instruction
system.cpu.op_class_0::SimdSqrt                     0      0.00%     67.68% # Class of committed instruction
system.cpu.op_class_0::SimdFloatAdd                 0      0.00%     67.68% # Class of committed instruction
system.cpu.op_class_0::SimdFloatAlu                 0      0.00%     67.68% # Class of committed instruction
system.cpu.op_class_0::SimdFloatCmp                 0      0.00%     67.68% # Class of committed instruction
system.cpu.op_class_0::SimdFloatCvt                 0      0.00%     67.68% # Class of committed instruction
system.cpu.op_class_0::SimdFloatDiv                 0      0.00%     67.68% # Class of committed instruction
system.cpu.op_class_0::SimdFloatMisc               21      0.05%     67.73% # Class of committed instruction
system.cpu.op_class_0::SimdFloatMult                0      0.00%     67.73% # Class of committed instruction
system.cpu.op_class_0::SimdFloatMultAcc             0      0.00%     67.73% # Class of committed instruction
system.cpu.op_class_0::SimdFloatSqrt                0      0.00%     67.73% # Class of committed instruction
system.cpu.op_class_0::SimdReduceAdd                0      0.00%     67.73% # Class of committed instruction
system.cpu.op_class_0::SimdReduceAlu                0      0.00%     67.73% # Class of committed instruction
system.cpu.op_class_0::SimdReduceCmp                0      0.00%     67.73% # Class of committed instruction
system.cpu.op_class_0::SimdFloatReduceAdd            0      0.00%     67.73% # Class of committed instruction
system.cpu.op_class_0::SimdFloatReduceCmp            0      0.00%     67.73% # Class of committed instruction
system.cpu.op_class_0::SimdAes                      0      0.00%     67.73% # Class of committed instruction
system.cpu.op_class_0::SimdAesMix                   0      0.00%     67.73% # Class of committed instruction
system.cpu.op_class_0::SimdSha1Hash                 0      0.00%     67.73% # Class of committed instruction
system.cpu.op_class_0::SimdSha1Hash2                0      0.00%     67.73% # Class of committed instruction
system.cpu.op_class_0::SimdSha256Hash               0      0.00%     67.73% # Class of committed instruction
system.cpu.op_class_0::SimdSha256Hash2              0      0.00%     67.73% # Class of committed instruction
system.cpu.op_class_0::SimdShaSigma2                0      0.00%     67.73% # Class of committed instruction
system.cpu.op_class_0::SimdShaSigma3                0      0.00%     67.73% # Class of committed instruction
system.cpu.op_class_0::SimdPredAlu                  0      0.00%     67.73% # Class of committed instruction
system.cpu.op_class_0::MemRead                   7218     17.09%     84.82% # Class of committed instruction
system.cpu.op_class_0::MemWrite                  6412     15.18%    100.00% # Class of committed instruction
system.cpu.op_class_0::FloatMemRead                 0      0.00%    100.00% # Class of committed instruction
system.cpu.op_class_0::FloatMemWrite                0      0.00%    100.00% # Class of committed instruction
system.cpu.op_class_0::IprAccess                    0      0.00%    100.00% # Class of committed instruction
system.cpu.op_class_0::InstPrefetch                 0      0.00%    100.00% # Class of committed instruction
system.cpu.op_class_0::total                    42239                       # Class of committed instruction
system.cpu.tickCycles                           50939                       # Number of cycles that the object actually ticked
system.cpu.workload.numSyscalls                    23                       # Number of system calls
system.membus.snoop_filter.hit_multi_requests           18                       # Number of requests hitting in the snoop filter with multiple (>1) holders of the requested data.
system.membus.snoop_filter.hit_multi_snoops            0                       # Number of snoops hitting in the snoop filter with multiple (>1) holders of the requested data.
system.membus.snoop_filter.hit_single_requests          257                       # Number of requests hitting in the snoop filter with a single holder of the requested data.
system.membus.snoop_filter.hit_single_snoops            0                       # Number of snoops hitting in the snoop filter with a single holder of the requested data.
system.membus.snoop_filter.tot_requests           985                       # Total number of requests made to the snoop filter.
system.membus.snoop_filter.tot_snoops               0                       # Total number of snoops made to the snoop filter.
system.clk_domain.clock                          1000                       # Clock period in ticks
system.cpu.branchPred.lookups                    9363                       # Number of BP lookups
system.cpu.branchPred.condPredicted              6266                       # Number of conditional branches predicted
system.cpu.branchPred.condIncorrect               841                       # Number of conditional branches incorrect
system.cpu.branchPred.BTBLookups                 3781                       # Number of BTB lookups
system.cpu.branchPred.BTBHits                    2694                       # Number of BTB hits
system.cpu.branchPred.BTBHitPct             71.250992                       # BTB Hit Percentage
system.cpu.branchPred.RASUsed                     998                       # Number of times the RAS was used to get a target.
system.cpu.branchPred.RASIncorrect                  1                       # Number of incorrect RAS predictions.
system.cpu.branchPred.indirectLookups             432                       # Number of indirect predictor lookups.
system.cpu.branchPred.indirectHits                213                       # Number of indirect target hits.
system.cpu.branchPred.indirectMisses              219                       # Number of indirect misses.
system.cpu.branchPred.indirectMispredicted          100                       # Number of mispredicted indirect branches.
system.cpu.dcache.demand_hits::.cpu.data        13357                       # number of demand (read+write) hits
system.cpu.dcache.demand_hits::total            13357                       # number of demand (read+write) hits
system.cpu.dcache.overall_hits::.cpu.data        13385                       # number of overall hits
system.cpu.dcache.overall_hits::total           13385                       # number of overall hits
system.cpu.dcache.demand_misses::.cpu.data          240                       # number of demand (read+write) misses
system.cpu.dcache.demand_misses::total            240                       # number of demand (read+write) misses
system.cpu.dcache.overall_misses::.cpu.data          254                       # number of overall misses
system.cpu.dcache.overall_misses::total           254                       # number of overall misses
system.cpu.dcache.demand_miss_latency::.cpu.data     14137000                       # number of demand (read+write) miss cycles
system.cpu.dcache.demand_miss_latency::total     14137000                       # number of demand (read+write) miss cycles
system.cpu.dcache.overall_miss_latency::.cpu.data     14137000                       # number of overall miss cycles
system.cpu.dcache.overall_miss_latency::total     14137000                       # number of overall miss cycles
system.cpu.dcache.demand_accesses::.cpu.data        13597                       # number of demand (read+write) accesses
system.cpu.dcache.demand_accesses::total        13597                       # number of demand (read+write) accesses
system.cpu.dcache.overall_accesses::.cpu.data        13639                       # number of overall (read+write) accesses
system.cpu.dcache.overall_accesses::total        13639                       # number of overall (read+write) accesses
system.cpu.dcache.demand_miss_rate::.cpu.data     0.017651                       # miss rate for demand accesses
system.cpu.dcache.demand_miss_rate::total     0.017651                       # miss rate for demand accesses
system.cpu.dcache.overall_miss_rate::.cpu.data     0.018623                       # miss rate for overall accesses
system.cpu.dcache.overall_miss_rate::total     0.018623                       # miss rate for overall accesses
system.cpu.dcache.demand_avg_miss_latency::.cpu.data 58904.166667                       # average overall miss latency
system.cpu.dcache.demand_avg_miss_latency::total 58904.166667                       # average overall miss latency
system.cpu.dcache.overall_avg_miss_latency::.cpu.data 55657.480315                       # average overall miss latency
system.cpu.dcache.overall_avg_miss_latency::total 55657.480315                       # average overall miss latency
system.cpu.dcache.blocked_cycles::no_mshrs            0                       # number of cycles access was blocked
system.cpu.dcache.blocked_cycles::no_targets            0                       # number of cycles access was blocked
system.cpu.dcache.blocked::no_mshrs                 0                       # number of cycles access was blocked
system.cpu.dcache.blocked::no_targets               0                       # number of cycles access was blocked
system.cpu.dcache.avg_blocked_cycles::no_mshrs          nan                       # average number of cycles each access was blocked
system.cpu.dcache.avg_blocked_cycles::no_targets          nan                       # average number of cycles each access was blocked
system.cpu.dcache.writebacks::.writebacks            1                       # number of writebacks
system.cpu.dcache.writebacks::total                 1                       # number of writebacks
system.cpu.dcache.demand_mshr_hits::.cpu.data           59                       # number of demand (read+write) MSHR hits
system.cpu.dcache.demand_mshr_hits::total           59                       # number of demand (read+write) MSHR hits
system.cpu.dcache.overall_mshr_hits::.cpu.data           59                       # number of overall MSHR hits
system.cpu.dcache.overall_mshr_hits::total           59                       # number of overall MSHR hits
system.cpu.dcache.demand_mshr_misses::.cpu.data          181                       # number of demand (read+write) MSHR misses
system.cpu.dcache.demand_mshr_misses::total          181                       # number of demand (read+write) MSHR misses
system.cpu.dcache.overall_mshr_misses::.cpu.data          191                       # number of overall MSHR misses
system.cpu.dcache.overall_mshr_misses::total          191                       # number of overall MSHR misses
system.cpu.dcache.demand_mshr_miss_latency::.cpu.data     10560800                       # number of demand (read+write) MSHR miss cycles
system.cpu.dcache.demand_mshr_miss_latency::total     10560800                       # number of demand (read+write) MSHR miss cycles
system.cpu.dcache.overall_mshr_miss_latency::.cpu.data     11139200                       # number of overall MSHR miss cycles
system.cpu.dcache.overall_mshr_miss_latency::total     11139200                       # number of overall MSHR miss cycles
system.cpu.dcache.demand_mshr_miss_rate::.cpu.data     0.013312                       # mshr miss rate for demand accesses
system.cpu.dcache.demand_mshr_miss_rate::total     0.013312                       # mshr miss rate for demand accesses
system.cpu.dcache.overall_mshr_miss_rate::.cpu.data     0.014004                       # mshr miss rate for overall accesses
system.cpu.dcache.overall_mshr_miss_rate::total     0.014004                       # mshr miss rate for overall accesses
system.cpu.dcache.demand_avg_mshr_miss_latency::.cpu.data 58346.961326                       # average overall mshr miss latency
system.cpu.dcache.demand_avg_mshr_miss_latency::total 58346.961326                       # average overall mshr miss latency
system.cpu.dcache.overall_avg_mshr_miss_latency::.cpu.data 58320.418848                       # average overall mshr miss latency
system.cpu.dcache.overall_avg_mshr_miss_latency::total 58320.418848                       # average overall mshr miss latency
system.cpu.dcache.replacements                      4                       # number of replacements
system.cpu.dcache.ReadReq_hits::.cpu.data         7252                       # number of ReadReq hits
system.cpu.dcache.ReadReq_hits::total            7252                       # number of ReadReq hits
system.cpu.dcache.ReadReq_misses::.cpu.data          114                       # number of ReadReq misses
system.cpu.dcache.ReadReq_misses::total           114                       # number of ReadReq misses
system.cpu.dcache.ReadReq_miss_latency::.cpu.data      6602200                       # number of ReadReq miss cycles
system.cpu.dcache.ReadReq_miss_latency::total      6602200                       # number of ReadReq miss cycles
system.cpu.dcache.ReadReq_accesses::.cpu.data         7366                       # number of ReadReq accesses(hits+misses)
system.cpu.dcache.ReadReq_accesses::total         7366                       # number of ReadReq accesses(hits+misses)
system.cpu.dcache.ReadReq_miss_rate::.cpu.data     0.015477                       # miss rate for ReadReq accesses
system.cpu.dcache.ReadReq_miss_rate::total     0.015477                       # miss rate for ReadReq accesses
system.cpu.dcache.ReadReq_avg_miss_latency::.cpu.data 57914.035088                       # average ReadReq miss latency
system.cpu.dcache.ReadReq_avg_miss_latency::total 57914.035088                       # average ReadReq miss latency
system.cpu.dcache.ReadReq_mshr_hits::.cpu.data            9                       # number of ReadReq MSHR hits
system.cpu.dcache.ReadReq_mshr_hits::total            9                       # number of ReadReq MSHR hits
system.cpu.dcache.ReadReq_mshr_misses::.cpu.data          105                       # number of ReadReq MSHR misses
system.cpu.dcache.ReadReq_mshr_misses::total          105                       # number of ReadReq MSHR misses
system.cpu.dcache.ReadReq_mshr_miss_latency::.cpu.data      6069800                       # number of ReadReq MSHR miss cycles
system.cpu.dcache.ReadReq_mshr_miss_latency::total      6069800                       # number of ReadReq MSHR miss cycles
system.cpu.dcache.ReadReq_mshr_miss_rate::.cpu.data     0.014255                       # mshr miss rate for ReadReq accesses
system.cpu.dcache.ReadReq_mshr_miss_rate::total     0.014255                       # mshr miss rate for ReadReq accesses
system.cpu.dcache.ReadReq_avg_mshr_miss_latency::.cpu.data 57807.619048                       # average ReadReq mshr miss latency
system.cpu.dcache.ReadReq_avg_mshr_miss_latency::total 57807.619048                       # average ReadReq mshr miss latency
system.cpu.dcache.WriteReq_hits::.cpu.data         6105                       # number of WriteReq hits
system.cpu.dcache.WriteReq_hits::total           6105                       # number of WriteReq hits
system.cpu.dcache.WriteReq_misses::.cpu.data          126                       # number of WriteReq misses
system.cpu.dcache.WriteReq_misses::total          126                       # number of WriteReq misses
system.cpu.dcache.WriteReq_miss_latency::.cpu.data      7534800                       # number of WriteReq miss cycles
system.cpu.dcache.WriteReq_miss_latency::total      7534800                       # number of WriteReq miss cycles
system.cpu.dcache.WriteReq_accesses::.cpu.data         6231                       # number of WriteReq accesses(hits+misses)
system.cpu.dcache.WriteReq_accesses::total         6231                       # number of WriteReq accesses(hits+misses)
system.cpu.dcache.WriteReq_miss_rate::.cpu.data     0.020221                       # miss rate for WriteReq accesses
system.cpu.dcache.WriteReq_miss_rate::total     0.020221                       # miss rate for WriteReq accesses
system.cpu.dcache.WriteReq_avg_miss_latency::.cpu.data        59800                       # average WriteReq miss latency
system.cpu.dcache.WriteReq_avg_miss_latency::total        59800                       # average WriteReq miss latency
system.cpu.dcache.WriteReq_mshr_hits::.cpu.data           50                       # number of WriteReq MSHR hits
system.cpu.dcache.WriteReq_mshr_hits::total           50                       # number of WriteReq MSHR hits
system.cpu.dcache.WriteReq_mshr_misses::.cpu.data           76                       # number of WriteReq MSHR misses
system.cpu.dcache.WriteReq_mshr_misses::total           76                       # number of WriteReq MSHR misses
system.cpu.dcache.WriteReq_mshr_miss_latency::.cpu.data      4491000                       # number of WriteReq MSHR miss cycles
system.cpu.dcache.WriteReq_mshr_miss_latency::total      4491000                       # number of WriteReq MSHR miss cycles
system.cpu.dcache.WriteReq_mshr_miss_rate::.cpu.data     0.012197                       # mshr miss rate for WriteReq accesses
system.cpu.dcache.WriteReq_mshr_miss_rate::total     0.012197                       # mshr miss rate for WriteReq accesses
system.cpu.dcache.WriteReq_avg_mshr_miss_latency::.cpu.data 59092.105263                       # average WriteReq mshr miss latency
system.cpu.dcache.WriteReq_avg_mshr_miss_latency::total 59092.105263                       # average WriteReq mshr miss latency
system.cpu.dcache.SoftPFReq_hits::.cpu.data           28                       # number of SoftPFReq hits
system.cpu.dcache.SoftPFReq_hits::total            28                       # number of SoftPFReq hits
system.cpu.dcache.SoftPFReq_misses::.cpu.data           14                       # number of SoftPFReq misses
system.cpu.dcache.SoftPFReq_misses::total           14                       # number of SoftPFReq misses
system.cpu.dcache.SoftPFReq_accesses::.cpu.data           42                       # number of SoftPFReq accesses(hits+misses)
system.cpu.dcache.SoftPFReq_accesses::total           42                       # number of SoftPFReq accesses(hits+misses)
system.cpu.dcache.SoftPFReq_miss_rate::.cpu.data     0.333333                       # miss rate for SoftPFReq accesses
system.cpu.dcache.SoftPFReq_miss_rate::total     0.333333                       # miss rate for SoftPFReq accesses
system.cpu.dcache.SoftPFReq_mshr_misses::.cpu.data           10                       # number of SoftPFReq MSHR misses
system.cpu.dcache.SoftPFReq_mshr_misses::total           10                       # number of SoftPFReq MSHR misses
system.cpu.dcache.SoftPFReq_mshr_miss_latency::.cpu.data       578400                       # number of SoftPFReq MSHR miss cycles
system.cpu.dcache.SoftPFReq_mshr_miss_latency::total       578400                       # number of SoftPFReq MSHR miss cycles
system.cpu.dcache.SoftPFReq_mshr_miss_rate::.cpu.data     0.238095                       # mshr miss rate for SoftPFReq accesses
system.cpu.dcache.SoftPFReq_mshr_miss_rate::total     0.238095                       # mshr miss rate for SoftPFReq accesses
system.cpu.dcache.SoftPFReq_avg_mshr_miss_latency::.cpu.data        57840                       # average SoftPFReq mshr miss latency
system.cpu.dcache.SoftPFReq_avg_mshr_miss_latency::total        57840                       # average SoftPFReq mshr miss latency
system.cpu.dcache.LoadLockedReq_hits::.cpu.data           79                       # number of LoadLockedReq hits
system.cpu.dcache.LoadLockedReq_hits::total           79                       # number of LoadLockedReq hits
system.cpu.dcache.LoadLockedReq_misses::.cpu.data            1                       # number of LoadLockedReq misses
system.cpu.dcache.LoadLockedReq_misses::total            1                       # number of LoadLockedReq misses
system.cpu.dcache.LoadLockedReq_miss_latency::.cpu.data        55200                       # number of LoadLockedReq miss cycles
system.cpu.dcache.LoadLockedReq_miss_latency::total        55200                       # number of LoadLockedReq miss cycles
system.cpu.dcache.LoadLockedReq_accesses::.cpu.data           80                       # number of LoadLockedReq accesses(hits+misses)
system.cpu.dcache.LoadLockedReq_accesses::total           80                       # number of LoadLockedReq accesses(hits+misses)
system.cpu.dcache.LoadLockedReq_miss_rate::.cpu.data     0.012500                       # miss rate for LoadLockedReq accesses
system.cpu.dcache.LoadLockedReq_miss_rate::total     0.012500                       # miss rate for LoadLockedReq accesses
system.cpu.dcache.LoadLockedReq_avg_miss_latency::.cpu.data        55200                       # average LoadLockedReq miss latency
system.cpu.dcache.LoadLockedReq_avg_miss_latency::total        55200                       # average LoadLockedReq miss latency
system.cpu.dcache.LoadLockedReq_mshr_misses::.cpu.data            1                       # number of LoadLockedReq MSHR misses
system.cpu.dcache.LoadLockedReq_mshr_misses::total            1                       # number of LoadLockedReq MSHR misses
system.cpu.dcache.LoadLockedReq_mshr_miss_latency::.cpu.data        54800                       # number of LoadLockedReq MSHR miss cycles
system.cpu.dcache.LoadLockedReq_mshr_miss_latency::total        54800                       # number of LoadLockedReq MSHR miss cycles
system.cpu.dcache.LoadLockedReq_mshr_miss_rate::.cpu.data     0.012500                       # mshr miss rate for LoadLockedReq accesses
system.cpu.dcache.LoadLockedReq_mshr_miss_rate::total     0.012500                       # mshr miss rate for LoadLockedReq accesses
system.cpu.dcache.LoadLockedReq_avg_mshr_miss_latency::.cpu.data        54800                       # average LoadLockedReq mshr miss latency
system.cpu.dcache.LoadLockedReq_avg_mshr_miss_latency::total        54800                       # average LoadLockedReq mshr miss latency
system.cpu.dcache.StoreCondReq_hits::.cpu.data           80                       # number of StoreCondReq hits
system.cpu.dcache.StoreCondReq_hits::total           80                       # number of StoreCondReq hits
system.cpu.dcache.StoreCondReq_accesses::.cpu.data           80                       # number of StoreCondReq accesses(hits+misses)
system.cpu.dcache.StoreCondReq_accesses::total           80                       # number of StoreCondReq accesses(hits+misses)
system.cpu.dcache.power_state.pwrStateResidencyTicks::UNDEFINED     43108200                       # Cumulative time (in ticks) in various power states
system.cpu.dcache.tags.tagsinuse           122.619656                       # Cycle average of tags in use
system.cpu.dcache.tags.total_refs               13736                       # Total number of references to valid blocks.
system.cpu.dcache.tags.sampled_refs               192                       # Sample count of references to valid blocks.
system.cpu.dcache.tags.avg_refs             71.541667                       # Average number of references to valid blocks.
system.cpu.dcache.tags.warmup_cycle            143000                       # Cycle when the warmup percentage was hit.
system.cpu.dcache.tags.occ_blocks::.cpu.data   122.619656                       # Average occupied blocks per requestor
system.cpu.dcache.tags.occ_percent::.cpu.data     0.119746                       # Average percentage of cache occupancy
system.cpu.dcache.tags.occ_percent::total     0.119746                       # Average percentage of cache occupancy
system.cpu.dcache.tags.occ_task_id_blocks::1024          188                       # Occupied blocks per task id
system.cpu.dcache.tags.age_task_id_blocks_1024::0           16                       # Occupied blocks per task id
system.cpu.dcache.tags.age_task_id_blocks_1024::1          172                       # Occupied blocks per task id
system.cpu.dcache.tags.occ_task_id_percent::1024     0.183594                       # Percentage of cache occupancy per task id
system.cpu.dcache.tags.tag_accesses             27790                       # Number of tag accesses
system.cpu.dcache.tags.data_accesses            27790                       # Number of data accesses
system.cpu.dcache.tags.power_state.pwrStateResidencyTicks::UNDEFINED     43108200                       # Cumulative time (in ticks) in various power states
system.cpu.dtb.instHits                             0                       # ITB inst hits
system.cpu.dtb.instMisses                           0                       # ITB inst misses
system.cpu.dtb.readHits                             0                       # DTB read hits
system.cpu.dtb.readMisses                           0                       # DTB read misses
system.cpu.dtb.writeHits                            0                       # DTB write hits
system.cpu.dtb.writeMisses                          0                       # DTB write misses
system.cpu.dtb.inserts                              0                       # Number of times an entry is inserted into the TLB
system.cpu.dtb.flushTlb                             0                       # Number of times complete TLB was flushed
system.cpu.dtb.flushTlbMva                          0                       # Number of times TLB was flushed by MVA
system.cpu.dtb.flushTlbMvaAsid                      0                       # Number of times TLB was flushed by MVA & ASID
system.cpu.dtb.flushTlbAsid                         0                       # Number of times TLB was flushed by ASID
system.cpu.dtb.flushedEntries                       0                       # Number of entries that have been flushed from TLB
system.cpu.dtb.alignFaults                          0                       # Number of TLB faults due to alignment restrictions
system.cpu.dtb.prefetchFaults                       0                       # Number of TLB faults due to prefetch
system.cpu.dtb.domainFaults                         0                       # Number of TLB faults due to domain restrictions
system.cpu.dtb.permsFaults                          0                       # Number of TLB faults due to permissions restrictions
system.cpu.dtb.readAccesses                         0                       # DTB read accesses
system.cpu.dtb.writeAccesses                        0                       # DTB write accesses
system.cpu.dtb.instAccesses                         0                       # ITB inst accesses
system.cpu.dtb.hits                                 0                       # Total TLB (inst and data) hits
system.cpu.dtb.misses                               0                       # Total TLB (inst and data) misses
system.cpu.dtb.accesses                             0                       # Total TLB (inst and data) accesses
system.cpu.dtb.stage2_mmu.stage2_tlb.instHits            0                       # ITB inst hits
system.cpu.dtb.stage2_mmu.stage2_tlb.instMisses            0                       # ITB inst misses
system.cpu.dtb.stage2_mmu.stage2_tlb.readHits            0                       # DTB read hits
system.cpu.dtb.stage2_mmu.stage2_tlb.readMisses            0                       # DTB read misses
system.cpu.dtb.stage2_mmu.stage2_tlb.writeHits            0                       # DTB write hits
system.cpu.dtb.stage2_mmu.stage2_tlb.writeMisses            0                       # DTB write misses
system.cpu.dtb.stage2_mmu.stage2_tlb.inserts            0                       # Number of times an entry is inserted into the TLB
system.cpu.dtb.stage2_mmu.stage2_tlb.flushTlb            0                       # Number of times complete TLB was flushed
system.cpu.dtb.stage2_mmu.stage2_tlb.flushTlbMva            0                       # Number of times TLB was flushed by MVA
system.cpu.dtb.stage2_mmu.stage2_tlb.flushTlbMvaAsid            0                       # Number of times TLB was flushed by MVA & ASID
system.cpu.dtb.stage2_mmu.stage2_tlb.flushTlbAsid            0                       # Number of times TLB was flushed by ASID
system.cpu.dtb.stage2_mmu.stage2_tlb.flushedEntries            0                       # Number of entries that have been flushed from TLB
system.cpu.dtb.stage2_mmu.stage2_tlb.alignFaults            0                       # Number of TLB faults due to alignment restrictions
system.cpu.dtb.stage2_mmu.stage2_tlb.prefetchFaults            0                       # Number of TLB faults due to prefetch
system.cpu.dtb.stage2_mmu.stage2_tlb.domainFaults            0                       # Number of TLB faults due to domain restrictions
system.cpu.dtb.stage2_mmu.stage2_tlb.permsFaults            0                       # Number of TLB faults due to permissions restrictions
system.cpu.dtb.stage2_mmu.stage2_tlb.readAccesses            0                       # DTB read accesses
system.cpu.dtb.stage2_mmu.stage2_tlb.writeAccesses            0                       # DTB write accesses
system.cpu.dtb.stage2_mmu.stage2_tlb.instAccesses            0                       # ITB inst accesses
system.cpu.dtb.stage2_mmu.stage2_tlb.hits            0                       # Total TLB (inst and data) hits
system.cpu.dtb.stage2_mmu.stage2_tlb.misses            0                       # Total TLB (inst and data) misses
system.cpu.dtb.stage2_mmu.stage2_tlb.accesses            0                       # Total TLB (inst and data) accesses
system.cpu.dtb.stage2_mmu.stage2_tlb.walker.walks            0                       # Table walker walks requested
system.cpu.dtb.stage2_mmu.stage2_tlb.walker.requestOrigin_Requested::Data            0                       # Table walker requests started/completed, data/inst
system.cpu.dtb.stage2_mmu.stage2_tlb.walker.requestOrigin_Requested::Inst            0                       # Table walker requests started/completed, data/inst
system.cpu.dtb.stage2_mmu.stage2_tlb.walker.requestOrigin_Requested::total            0                       # Table walker requests started/completed, data/inst
system.cpu.dtb.stage2_mmu.stage2_tlb.walker.requestOrigin_Completed::Data            0                       # Table walker requests started/completed, data/inst
system.cpu.dtb.stage2_mmu.stage2_tlb.walker.requestOrigin_Completed::Inst            0                       # Table walker requests started/completed, data/inst
system.cpu.dtb.stage2_mmu.stage2_tlb.walker.requestOrigin_Completed::total            0                       # Table walker requests started/completed, data/inst
system.cpu.dtb.stage2_mmu.stage2_tlb.walker.requestOrigin::total            0                       # Table walker requests started/completed, data/inst
system.cpu.dtb.stage2_mmu.stage2_tlb.walker.power_state.pwrStateResidencyTicks::UNDEFINED     43108200                       # Cumulative time (in ticks) in various power states
system.cpu.dtb.walker.walks                         0                       # Table walker walks requested
system.cpu.dtb.walker.requestOrigin_Requested::Data            0                       # Table walker requests started/completed, data/inst
system.cpu.dtb.walker.requestOrigin_Requested::Inst            0                       # Table walker requests started/completed, data/inst
system.cpu.dtb.walker.requestOrigin_Requested::total            0                       # Table walker requests started/completed, data/inst
system.cpu.dtb.walker.requestOrigin_Completed::Data            0                       # Table walker requests started/completed, data/inst
system.cpu.dtb.walker.requestOrigin_Completed::Inst            0                       # Table walker requests started/completed, data/inst
system.cpu.dtb.walker.requestOrigin_Completed::total            0                       # Table walker requests started/completed, data/inst
system.cpu.dtb.walker.requestOrigin::total            0                       # Table walker requests started/completed, data/inst
system.cpu.dtb.walker.power_state.pwrStateResidencyTicks::UNDEFINED     43108200                       # Cumulative time (in ticks) in various power states
system.cpu.fetch2.intInstructions               24923                       # Number of integer instructions successfully decoded
system.cpu.fetch2.fpInstructions                    0                       # Number of floating point instructions successfully decoded
system.cpu.fetch2.vecInstructions                   0                       # Number of SIMD instructions successfully decoded
system.cpu.fetch2.loadInstructions               6213                       # Number of memory load instructions successfully decoded
system.cpu.fetch2.storeInstructions              3149                       # Number of memory store instructions successfully decoded
system.cpu.fetch2.amoInstructions                   0                       # Number of memory atomic instructions successfully decoded
system.cpu.icache.demand_hits::.cpu.inst        11370                       # number of demand (read+write) hits
system.cpu.icache.demand_hits::total            11370                       # number of demand (read+write) hits
system.cpu.icache.overall_hits::.cpu.inst        11370                       # number of overall hits
system.cpu.icache.overall_hits::total           11370                       # number of overall hits
system.cpu.icache.demand_misses::.cpu.inst          556                       # number of demand (read+write) misses
system.cpu.icache.demand_misses::total            556                       # number of demand (read+write) misses
system.cpu.icache.overall_misses::.cpu.inst          556                       # number of overall misses
system.cpu.icache.overall_misses::total           556                       # number of overall misses
system.cpu.icache.demand_miss_latency::.cpu.inst     29425000                       # number of demand (read+write) miss cycles
system.cpu.icache.demand_miss_latency::total     29425000                       # number of demand (read+write) miss cycles
system.cpu.icache.overall_miss_latency::.cpu.inst     29425000                       # number of overall miss cycles
system.cpu.icache.overall_miss_latency::total     29425000                       # number of overall miss cycles
system.cpu.icache.demand_accesses::.cpu.inst        11926                       # number of demand (read+write) accesses
system.cpu.icache.demand_accesses::total        11926                       # number of demand (read+write) accesses
system.cpu.icache.overall_accesses::.cpu.inst        11926                       # number of overall (read+write) accesses
system.cpu.icache.overall_accesses::total        11926                       # number of overall (read+write) accesses
system.cpu.icache.demand_miss_rate::.cpu.inst     0.046621                       # miss rate for demand accesses
system.cpu.icache.demand_miss_rate::total     0.046621                       # miss rate for demand accesses
system.cpu.icache.overall_miss_rate::.cpu.inst     0.046621                       # miss rate for overall accesses
system.cpu.icache.overall_miss_rate::total     0.046621                       # miss rate for overall accesses
system.cpu.icache.demand_avg_miss_latency::.cpu.inst 52922.661871                       # average overall miss latency
system.cpu.icache.demand_avg_miss_latency::total 52922.661871                       # average overall miss latency
system.cpu.icache.overall_avg_miss_latency::.cpu.inst 52922.661871                       # average overall miss latency
system.cpu.icache.overall_avg_miss_latency::total 52922.661871                       # average overall miss latency
system.cpu.icache.blocked_cycles::no_mshrs            0                       # number of cycles access was blocked
system.cpu.icache.blocked_cycles::no_targets            0                       # number of cycles access was blocked
system.cpu.icache.blocked::no_mshrs                 0                       # number of cycles access was blocked
system.cpu.icache.blocked::no_targets               0                       # number of cycles access was blocked
system.cpu.icache.avg_blocked_cycles::no_mshrs          nan                       # average number of cycles each access was blocked
system.cpu.icache.avg_blocked_cycles::no_targets          nan                       # average number of cycles each access was blocked
system.cpu.icache.writebacks::.writebacks          233                       # number of writebacks
system.cpu.icache.writebacks::total               233                       # number of writebacks
system.cpu.icache.demand_mshr_misses::.cpu.inst          556                       # number of demand (read+write) MSHR misses
system.cpu.icache.demand_mshr_misses::total          556                       # number of demand (read+write) MSHR misses
system.cpu.icache.overall_mshr_misses::.cpu.inst          556                       # number of overall MSHR misses
system.cpu.icache.overall_mshr_misses::total          556                       # number of overall MSHR misses
system.cpu.icache.demand_mshr_miss_latency::.cpu.inst     29202600                       # number of demand (read+write) MSHR miss cycles
system.cpu.icache.demand_mshr_miss_latency::total     29202600                       # number of demand (read+write) MSHR miss cycles
system.cpu.icache.overall_mshr_miss_latency::.cpu.inst     29202600                       # number of overall MSHR miss cycles
system.cpu.icache.overall_mshr_miss_latency::total     29202600                       # number of overall MSHR miss cycles
system.cpu.icache.demand_mshr_miss_rate::.cpu.inst     0.046621                       # mshr miss rate for demand accesses
system.cpu.icache.demand_mshr_miss_rate::total     0.046621                       # mshr miss rate for demand accesses
system.cpu.icache.overall_mshr_miss_rate::.cpu.inst     0.046621                       # mshr miss rate for overall accesses
system.cpu.icache.overall_mshr_miss_rate::total     0.046621                       # mshr miss rate for overall accesses
system.cpu.icache.demand_avg_mshr_miss_latency::.cpu.inst 52522.661871                       # average overall mshr miss latency
system.cpu.icache.demand_avg_mshr_miss_latency::total 52522.661871                       # average overall mshr miss latency
system.cpu.icache.overall_avg_mshr_miss_latency::.cpu.inst 52522.661871                       # average overall mshr miss latency
system.cpu.icache.overall_avg_mshr_miss_latency::total 52522.661871                       # average overall mshr miss latency
system.cpu.icache.replacements                    233                       # number of replacements
system.cpu.icache.ReadReq_hits::.cpu.inst        11370                       # number of ReadReq hits
system.cpu.icache.ReadReq_hits::total           11370                       # number of ReadReq hits
system.cpu.icache.ReadReq_misses::.cpu.inst          556                       # number of ReadReq misses
system.cpu.icache.ReadReq_misses::total           556                       # number of ReadReq misses
system.cpu.icache.ReadReq_miss_latency::.cpu.inst     29425000                       # number of ReadReq miss cycles
system.cpu.icache.ReadReq_miss_latency::total     29425000                       # number of ReadReq miss cycles
system.cpu.icache.ReadReq_accesses::.cpu.inst        11926                       # number of ReadReq accesses(hits+misses)
system.cpu.icache.ReadReq_accesses::total        11926                       # number of ReadReq accesses(hits+misses)
system.cpu.icache.ReadReq_miss_rate::.cpu.inst     0.046621                       # miss rate for ReadReq accesses
system.cpu.icache.ReadReq_miss_rate::total     0.046621                       # miss rate for ReadReq accesses
system.cpu.icache.ReadReq_avg_miss_latency::.cpu.inst 52922.661871                       # average ReadReq miss latency
system.cpu.icache.ReadReq_avg_miss_latency::total 52922.661871                       # average ReadReq miss latency
system.cpu.icache.ReadReq_mshr_misses::.cpu.inst          556                       # number of ReadReq MSHR misses
system.cpu.icache.ReadReq_mshr_misses::total          556                       # number of ReadReq MSHR misses
system.cpu.icache.ReadReq_mshr_miss_latency::.cpu.inst     29202600                       # number of ReadReq MSHR miss cycles
system.cpu.icache.ReadReq_mshr_miss_latency::total     29202600                       # number of ReadReq MSHR miss cycles
system.cpu.icache.ReadReq_mshr_miss_rate::.cpu.inst     0.046621                       # mshr miss rate for ReadReq accesses
system.cpu.icache.ReadReq_mshr_miss_rate::total     0.046621                       # mshr miss rate for ReadReq accesses
system.cpu.icache.ReadReq_avg_mshr_miss_latency::.cpu.inst 52522.661871                       # average ReadReq mshr miss latency
system.cpu.icache.ReadReq_avg_mshr_miss_latency::total 52522.661871                       # average ReadReq mshr miss latency
system.cpu.icache.power_state.pwrStateResidencyTicks::UNDEFINED     43108200                       # Cumulative time (in ticks) in various power states
system.cpu.icache.tags.tagsinuse           202.627150                       # Cycle average of tags in use
system.cpu.icache.tags.total_refs               11926                       # Total number of references to valid blocks.
system.cpu.icache.tags.sampled_refs               556                       # Sample count of references to valid blocks.
system.cpu.icache.tags.avg_refs             21.449640                       # Average number of references to valid blocks.
system.cpu.icache.tags.warmup_cycle             77000                       # Cycle when the warmup percentage was hit.
system.cpu.icache.tags.occ_blocks::.cpu.inst   202.627150                       # Average occupied blocks per requestor
system.cpu.icache.tags.occ_percent::.cpu.inst     0.395756                       # Average percentage of cache occupancy
system.cpu.icache.tags.occ_percent::total     0.395756                       # Average percentage of cache occupancy
system.cpu.icache.tags.occ_task_id_blocks::1024          323                       # Occupied blocks per task id
system.cpu.icache.tags.age_task_id_blocks_1024::0           75                       # Occupied blocks per task id
system.cpu.icache.tags.age_task_id_blocks_1024::1          248                       # Occupied blocks per task id
system.cpu.icache.tags.occ_task_id_percent::1024     0.630859                       # Percentage of cache occupancy per task id
system.cpu.icache.tags.tag_accesses             24408                       # Number of tag accesses
system.cpu.icache.tags.data_accesses            24408                       # Number of data accesses
system.cpu.icache.tags.power_state.pwrStateResidencyTicks::UNDEFINED     43108200                       # Cumulative time (in ticks) in various power states
system.cpu.itb.instHits                             0                       # ITB inst hits
system.cpu.itb.instMisses                           0                       # ITB inst misses
system.cpu.itb.readHits                             0                       # DTB read hits
system.cpu.itb.readMisses                           0                       # DTB read misses
system.cpu.itb.writeHits                            0                       # DTB write hits
system.cpu.itb.writeMisses                          0                       # DTB write misses
system.cpu.itb.inserts                              0                       # Number of times an entry is inserted into the TLB
system.cpu.itb.flushTlb                             0                       # Number of times complete TLB was flushed
system.cpu.itb.flushTlbMva                          0                       # Number of times TLB was flushed by MVA
system.cpu.itb.flushTlbMvaAsid                      0                       # Number of times TLB was flushed by MVA & ASID
system.cpu.itb.flushTlbAsid                         0                       # Number of times TLB was flushed by ASID
system.cpu.itb.flushedEntries                       0                       # Number of entries that have been flushed from TLB
system.cpu.itb.alignFaults                          0                       # Number of TLB faults due to alignment restrictions
system.cpu.itb.prefetchFaults                       0                       # Number of TLB faults due to prefetch
system.cpu.itb.domainFaults                         0                       # Number of TLB faults due to domain restrictions
system.cpu.itb.permsFaults                          0                       # Number of TLB faults due to permissions restrictions
system.cpu.itb.readAccesses                         0                       # DTB read accesses
system.cpu.itb.writeAccesses                        0                       # DTB write accesses
system.cpu.itb.instAccesses                         0                       # ITB inst accesses
system.cpu.itb.hits                                 0                       # Total TLB (inst and data) hits
system.cpu.itb.misses                               0                       # Total TLB (inst and data) misses
system.cpu.itb.accesses                             0                       # Total TLB (inst and data) accesses
system.cpu.itb.stage2_mmu.stage2_tlb.instHits            0                       # ITB inst hits
system.cpu.itb.stage2_mmu.stage2_tlb.instMisses            0                       # ITB inst misses
system.cpu.itb.stage2_mmu.stage2_tlb.readHits            0                       # DTB read hits
system.cpu.itb.stage2_mmu.stage2_tlb.readMisses            0                       # DTB read misses
system.cpu.itb.stage2_mmu.stage2_tlb.writeHits            0                       # DTB write hits
system.cpu.itb.stage2_mmu.stage2_tlb.writeMisses            0                       # DTB write misses
system.cpu.itb.stage2_mmu.stage2_tlb.inserts            0                       # Number of times an entry is inserted into the TLB
system.cpu.itb.stage2_mmu.stage2_tlb.flushTlb            0                       # Number of times complete TLB was flushed
system.cpu.itb.stage2_mmu.stage2_tlb.flushTlbMva            0                       # Number of times TLB was flushed by MVA
system.cpu.itb.stage2_mmu.stage2_tlb.flushTlbMvaAsid            0                       # Number of times TLB was flushed by MVA & ASID
system.cpu.itb.stage2_mmu.stage2_tlb.flushTlbAsid            0                       # Number of times TLB was flushed by ASID
system.cpu.itb.stage2_mmu.stage2_tlb.flushedEntries            0                       # Number of entries that have been flushed from TLB
system.cpu.itb.stage2_mmu.stage2_tlb.alignFaults            0                       # Number of TLB faults due to alignment restrictions
system.cpu.itb.stage2_mmu.stage2_tlb.prefetchFaults            0                       # Number of TLB faults due to prefetch
system.cpu.itb.stage2_mmu.stage2_tlb.domainFaults            0                       # Number of TLB faults due to domain restrictions
system.cpu.itb.stage2_mmu.stage2_tlb.permsFaults            0                       # Number of TLB faults due to permissions restrictions
system.cpu.itb.stage2_mmu.stage2_tlb.readAccesses            0                       # DTB read accesses
system.cpu.itb.stage2_mmu.stage2_tlb.writeAccesses            0                       # DTB write accesses
system.cpu.itb.stage2_mmu.stage2_tlb.instAccesses            0                       # ITB inst accesses
system.cpu.itb.stage2_mmu.stage2_tlb.hits            0                       # Total TLB (inst and data) hits
system.cpu.itb.stage2_mmu.stage2_tlb.misses            0                       # Total TLB (inst and data) misses
system.cpu.itb.stage2_mmu.stage2_tlb.accesses            0                       # Total TLB (inst and data) accesses
system.cpu.itb.stage2_mmu.stage2_tlb.walker.walks            0                       # Table walker walks requested
system.cpu.itb.stage2_mmu.stage2_tlb.walker.requestOrigin_Requested::Data            0                       # Table walker requests started/completed, data/inst
system.cpu.itb.stage2_mmu.stage2_tlb.walker.requestOrigin_Requested::Inst            0                       # Table walker requests started/completed, data/inst
system.cpu.itb.stage2_mmu.stage2_tlb.walker.requestOrigin_Requested::total            0                       # Table walker requests started/completed, data/inst
system.cpu.itb.stage2_mmu.stage2_tlb.walker.requestOrigin_Completed::Data            0                       # Table walker requests started/completed, data/inst
system.cpu.itb.stage2_mmu.stage2_tlb.walker.requestOrigin_Completed::Inst            0                       # Table walker requests started/completed, data/inst
system.cpu.itb.stage2_mmu.stage2_tlb.walker.requestOrigin_Completed::total            0                       # Table walker requests started/completed, data/inst
system.cpu.itb.stage2_mmu.stage2_tlb.walker.requestOrigin::total            0                       # Table walker requests started/completed, data/inst
system.cpu.itb.stage2_mmu.stage2_tlb.walker.power_state.pwrStateResidencyTicks::UNDEFINED     43108200                       # Cumulative time (in ticks) in various power states
system.cpu.itb.walker.walks                         0                       # Table walker walks requested
system.cpu.itb.walker.requestOrigin_Requested::Data            0                       # Table walker requests started/completed, data/inst
system.cpu.itb.walker.requestOrigin_Requested::Inst            0                       # Table walker requests started/completed, data/inst
system.cpu.itb.walker.requestOrigin_Requested::total            0                       # Table walker requests started/completed, data/inst
system.cpu.itb.walker.requestOrigin_Completed::Data            0                       # Table walker requests started/completed, data/inst
system.cpu.itb.walker.requestOrigin_Completed::Inst            0                       # Table walker requests started/completed, data/inst
system.cpu.itb.walker.requestOrigin_Completed::total            0                       # Table walker requests started/completed, data/inst
system.cpu.itb.walker.requestOrigin::total            0                       # Table walker requests started/completed, data/inst
system.cpu.itb.walker.power_state.pwrStateResidencyTicks::UNDEFINED     43108200                       # Cumulative time (in ticks) in various power states
system.cpu.power_state.pwrStateResidencyTicks::ON     43108200                       # Cumulative time (in ticks) in various power states
system.cpu.thread_0.numInsts                    35400                       # Number of Instructions committed
system.cpu.thread_0.numOps                      42239                       # Number of Ops committed
system.cpu.thread_0.numMemRefs                      0                       # Number of Memory References
system.cpu_clk_domain.clock                       200                       # Clock period in ticks
system.cpu_voltage_domain.voltage                   1                       # Voltage in Volts
system.mem_ctrls.avgPriority_.writebacks::samples       156.00                       # Average QoS priority value for accepted requests
system.mem_ctrls.avgPriority_.cpu.inst::samples       476.00                       # Average QoS priority value for accepted requests
system.mem_ctrls.avgPriority_.cpu.data::samples       191.00                       # Average QoS priority value for accepted requests
system.mem_ctrls.priorityMinLatency      0.000000018750                       # per QoS priority minimum request to response latency (s)
system.mem_ctrls.priorityMaxLatency      0.000028735750                       # per QoS priority maximum request to response latency (s)
system.mem_ctrls.numReadWriteTurnArounds            8                       # Number of turnarounds from READ to WRITE
system.mem_ctrls.numWriteReadTurnArounds            8                       # Number of turnarounds from WRITE to READ
system.mem_ctrls.numStayReadState                1542                       # Number of times bus staying in READ state
system.mem_ctrls.numStayWriteState                124                       # Number of times bus staying in WRITE state
system.mem_ctrls.readReqs                         748                       # Number of read requests accepted
system.mem_ctrls.writeReqs                        218                       # Number of write requests accepted
system.mem_ctrls.readBursts                       748                       # Number of controller read bursts, including those serviced by the write queue
system.mem_ctrls.writeBursts                      218                       # Number of controller write bursts, including those merged in the write queue
system.mem_ctrls.servicedByWrQ                     81                       # Number of controller read bursts serviced by the write queue
system.mem_ctrls.mergedWrBursts                    62                       # Number of controller write bursts merged with an existing one
system.mem_ctrls.neitherReadNorWriteReqs            0                       # Number of requests that are neither read nor write
system.mem_ctrls.avgRdQLen                       1.15                       # Average read queue length when enqueuing
system.mem_ctrls.avgWrQLen                      16.74                       # Average write queue length when enqueuing
system.mem_ctrls.numRdRetry                         0                       # Number of times read queue was full causing retry
system.mem_ctrls.numWrRetry                         0                       # Number of times write queue was full causing retry
system.mem_ctrls.readPktSize::0                     0                       # Read request sizes (log2)
system.mem_ctrls.readPktSize::1                     0                       # Read request sizes (log2)
system.mem_ctrls.readPktSize::2                     0                       # Read request sizes (log2)
system.mem_ctrls.readPktSize::3                     0                       # Read request sizes (log2)
system.mem_ctrls.readPktSize::4                     0                       # Read request sizes (log2)
system.mem_ctrls.readPktSize::5                     0                       # Read request sizes (log2)
system.mem_ctrls.readPktSize::6                   748                       # Read request sizes (log2)
system.mem_ctrls.writePktSize::0                    0                       # Write request sizes (log2)
system.mem_ctrls.writePktSize::1                    0                       # Write request sizes (log2)
system.mem_ctrls.writePktSize::2                    0                       # Write request sizes (log2)
system.mem_ctrls.writePktSize::3                    0                       # Write request sizes (log2)
system.mem_ctrls.writePktSize::4                    0                       # Write request sizes (log2)
system.mem_ctrls.writePktSize::5                    0                       # Write request sizes (log2)
system.mem_ctrls.writePktSize::6                  218                       # Write request sizes (log2)
system.mem_ctrls.rdQLenPdf::0                     560                       # What read queue length does an incoming req see
system.mem_ctrls.rdQLenPdf::1                      99                       # What read queue length does an incoming req see
system.mem_ctrls.rdQLenPdf::2                       8                       # What read queue length does an incoming req see
system.mem_ctrls.rdQLenPdf::3                       0                       # What read queue length does an incoming req see
system.mem_ctrls.rdQLenPdf::4                       0                       # What read queue length does an incoming req see
system.mem_ctrls.rdQLenPdf::5                       0                       # What read queue length does an incoming req see
system.mem_ctrls.rdQLenPdf::6                       0                       # What read queue length does an incoming req see
system.mem_ctrls.rdQLenPdf::7                       0                       # What read queue length does an incoming req see
system.mem_ctrls.rdQLenPdf::8                       0                       # What read queue length does an incoming req see
system.mem_ctrls.rdQLenPdf::9                       0                       # What read queue length does an incoming req see
system.mem_ctrls.rdQLenPdf::10                      0                       # What read queue length does an incoming req see
system.mem_ctrls.rdQLenPdf::11                      0                       # What read queue length does an incoming req see
system.mem_ctrls.rdQLenPdf::12                      0                       # What read queue length does an incoming req see
system.mem_ctrls.rdQLenPdf::13                      0                       # What read queue length does an incoming req see
system.mem_ctrls.rdQLenPdf::14                      0                       # What read queue length does an incoming req see
system.mem_ctrls.rdQLenPdf::15                      0                       # What read queue length does an incoming req see
system.mem_ctrls.rdQLenPdf::16                      0                       # What read queue length does an incoming req see
system.mem_ctrls.rdQLenPdf::17                      0                       # What read queue length does an incoming req see
system.mem_ctrls.rdQLenPdf::18                      0                       # What read queue length does an incoming req see
system.mem_ctrls.rdQLenPdf::19                      0                       # What read queue length does an incoming req see
system.mem_ctrls.rdQLenPdf::20                      0                       # What read queue length does an incoming req see
system.mem_ctrls.rdQLenPdf::21                      0                       # What read queue length does an incoming req see
system.mem_ctrls.rdQLenPdf::22                      0                       # What read queue length does an incoming req see
system.mem_ctrls.rdQLenPdf::23                      0                       # What read queue length does an incoming req see
system.mem_ctrls.rdQLenPdf::24                      0                       # What read queue length does an incoming req see
system.mem_ctrls.rdQLenPdf::25                      0                       # What read queue length does an incoming req see
system.mem_ctrls.rdQLenPdf::26                      0                       # What read queue length does an incoming req see
system.mem_ctrls.rdQLenPdf::27                      0                       # What read queue length does an incoming req see
system.mem_ctrls.rdQLenPdf::28                      0                       # What read queue length does an incoming req see
system.mem_ctrls.rdQLenPdf::29                      0                       # What read queue length does an incoming req see
system.mem_ctrls.rdQLenPdf::30                      0                       # What read queue length does an incoming req see
system.mem_ctrls.rdQLenPdf::31                      0                       # What read queue length does an incoming req see
system.mem_ctrls.wrQLenPdf::0                       1                       # What write queue length does an incoming req see
system.mem_ctrls.wrQLenPdf::1                       1                       # What write queue length does an incoming req see
system.mem_ctrls.wrQLenPdf::2                       1                       # What write queue length does an incoming req see
system.mem_ctrls.wrQLenPdf::3                       1                       # What write queue length does an incoming req see
system.mem_ctrls.wrQLenPdf::4                       1                       # What write queue length does an incoming req see
system.mem_ctrls.wrQLenPdf::5                       1                       # What write queue length does an incoming req see
system.mem_ctrls.wrQLenPdf::6                       1                       # What write queue length does an incoming req see
system.mem_ctrls.wrQLenPdf::7                       1                       # What write queue length does an incoming req see
system.mem_ctrls.wrQLenPdf::8                       1                       # What write queue length does an incoming req see
system.mem_ctrls.wrQLenPdf::9                       1                       # What write queue length does an incoming req see
system.mem_ctrls.wrQLenPdf::10                      1                       # What write queue length does an incoming req see
system.mem_ctrls.wrQLenPdf::11                      1                       # What write queue length does an incoming req see
system.mem_ctrls.wrQLenPdf::12                      1                       # What write queue length does an incoming req see
system.mem_ctrls.wrQLenPdf::13                      1                       # What write queue length does an incoming req see
system.mem_ctrls.wrQLenPdf::14                      1                       # What write queue length does an incoming req see
system.mem_ctrls.wrQLenPdf::15                      2                       # What write queue length does an incoming req see
system.mem_ctrls.wrQLenPdf::16                      2                       # What write queue length does an incoming req see
system.mem_ctrls.wrQLenPdf::17                      8                       # What write queue length does an incoming req see
system.mem_ctrls.wrQLenPdf::18                     10                       # What write queue length does an incoming req see
system.mem_ctrls.wrQLenPdf::19                      9                       # What write queue length does an incoming req see
system.mem_ctrls.wrQLenPdf::20                      9                       # What write queue length does an incoming req see
system.mem_ctrls.wrQLenPdf::21                      9                       # What write queue length does an incoming req see
system.mem_ctrls.wrQLenPdf::22                     11                       # What write queue length does an incoming req see
system.mem_ctrls.wrQLenPdf::23                      9                       # What write queue length does an incoming req see
system.mem_ctrls.wrQLenPdf::24                      8                       # What write queue length does an incoming req see
system.mem_ctrls.wrQLenPdf::25                      8                       # What write queue length does an incoming req see
system.mem_ctrls.wrQLenPdf::26                      8                       # What write queue length does an incoming req see
system.mem_ctrls.wrQLenPdf::27                      8                       # What write queue length does an incoming req see
system.mem_ctrls.wrQLenPdf::28                      8                       # What write queue length does an incoming req see
system.mem_ctrls.wrQLenPdf::29                      8                       # What write queue length does an incoming req see
system.mem_ctrls.wrQLenPdf::30                      8                       # What write queue length does an incoming req see
system.mem_ctrls.wrQLenPdf::31                      8                       # What write queue length does an incoming req see
system.mem_ctrls.wrQLenPdf::32                      8                       # What write queue length does an incoming req see
system.mem_ctrls.wrQLenPdf::33                      0                       # What write queue length does an incoming req see
system.mem_ctrls.wrQLenPdf::34                      0                       # What write queue length does an incoming req see
system.mem_ctrls.wrQLenPdf::35                      0                       # What write queue length does an incoming req see
system.mem_ctrls.wrQLenPdf::36                      0                       # What write queue length does an incoming req see
system.mem_ctrls.wrQLenPdf::37                      0                       # What write queue length does an incoming req see
system.mem_ctrls.wrQLenPdf::38                      0                       # What write queue length does an incoming req see
system.mem_ctrls.wrQLenPdf::39                      0                       # What write queue length does an incoming req see
system.mem_ctrls.wrQLenPdf::40                      0                       # What write queue length does an incoming req see
system.mem_ctrls.wrQLenPdf::41                      0                       # What write queue length does an incoming req see
system.mem_ctrls.wrQLenPdf::42                      0                       # What write queue length does an incoming req see
system.mem_ctrls.wrQLenPdf::43                      0                       # What write queue length does an incoming req see
system.mem_ctrls.wrQLenPdf::44                      0                       # What write queue length does an incoming req see
system.mem_ctrls.wrQLenPdf::45                      0                       # What write queue length does an incoming req see
system.mem_ctrls.wrQLenPdf::46                      0                       # What write queue length does an incoming req see
system.mem_ctrls.wrQLenPdf::47                      0                       # What write queue length does an incoming req see
system.mem_ctrls.wrQLenPdf::48                      0                       # What write queue length does an incoming req see
system.mem_ctrls.wrQLenPdf::49                      0                       # What write queue length does an incoming req see
system.mem_ctrls.wrQLenPdf::50                      0                       # What write queue length does an incoming req see
system.mem_ctrls.wrQLenPdf::51                      0                       # What write queue length does an incoming req see
system.mem_ctrls.wrQLenPdf::52                      0                       # What write queue length does an incoming req see
system.mem_ctrls.wrQLenPdf::53                      0                       # What write queue length does an incoming req see
system.mem_ctrls.wrQLenPdf::54                      0                       # What write queue length does an incoming req see
system.mem_ctrls.wrQLenPdf::55                      0                       # What write queue length does an incoming req see
system.mem_ctrls.wrQLenPdf::56                      0                       # What write queue length does an incoming req see
system.mem_ctrls.wrQLenPdf::57                      0                       # What write queue length does an incoming req see
system.mem_ctrls.wrQLenPdf::58                      0                       # What write queue length does an incoming req see
system.mem_ctrls.wrQLenPdf::59                      0                       # What write queue length does an incoming req see
system.mem_ctrls.wrQLenPdf::60                      0                       # What write queue length does an incoming req see
system.mem_ctrls.wrQLenPdf::61                      0                       # What write queue length does an incoming req see
system.mem_ctrls.wrQLenPdf::62                      0                       # What write queue length does an incoming req see
system.mem_ctrls.wrQLenPdf::63                      0                       # What write queue length does an incoming req see
system.mem_ctrls.rdPerTurnAround::samples            8                       # Reads before turning the bus around for writes
system.mem_ctrls.rdPerTurnAround::mean      79.875000                       # Reads before turning the bus around for writes
system.mem_ctrls.rdPerTurnAround::gmean     48.595585                       # Reads before turning the bus around for writes
system.mem_ctrls.rdPerTurnAround::stdev    118.312465                       # Reads before turning the bus around for writes
system.mem_ctrls.rdPerTurnAround::16-31             2     25.00%     25.00% # Reads before turning the bus around for writes
system.mem_ctrls.rdPerTurnAround::32-47             4     50.00%     75.00% # Reads before turning the bus around for writes
system.mem_ctrls.rdPerTurnAround::64-79             1     12.50%     87.50% # Reads before turning the bus around for writes
system.mem_ctrls.rdPerTurnAround::368-383            1     12.50%    100.00% # Reads before turning the bus around for writes
system.mem_ctrls.rdPerTurnAround::total             8                       # Reads before turning the bus around for writes
system.mem_ctrls.wrPerTurnAround::samples            8                       # Writes before turning the bus around for reads
system.mem_ctrls.wrPerTurnAround::mean      16.500000                       # Writes before turning the bus around for reads
system.mem_ctrls.wrPerTurnAround::gmean     16.452570                       # Writes before turning the bus around for reads
system.mem_ctrls.wrPerTurnAround::stdev      1.414214                       # Writes before turning the bus around for reads
system.mem_ctrls.wrPerTurnAround::16                7     87.50%     87.50% # Writes before turning the bus around for reads
system.mem_ctrls.wrPerTurnAround::20                1     12.50%    100.00% # Writes before turning the bus around for reads
system.mem_ctrls.wrPerTurnAround::total             8                       # Writes before turning the bus around for reads
system.mem_ctrls.bytesReadWrQ                    5184                       # Total number of bytes read from write queue
system.mem_ctrls.bytesReadSys                   47872                       # Total read bytes from the system interface side
system.mem_ctrls.bytesWrittenSys                13952                       # Total written bytes from the system interface side
system.mem_ctrls.avgRdBWSys                   1110.51                       # Average system read bandwidth in MiByte/s
system.mem_ctrls.avgWrBWSys                    323.65                       # Average system write bandwidth in MiByte/s
system.mem_ctrls.totGap                      43104800                       # Total gap between requests
system.mem_ctrls.avgGap                      44621.95                       # Average gap between requests
system.mem_ctrls.requestorReadBytes::.cpu.inst        30464                       # Per-requestor bytes read from memory
system.mem_ctrls.requestorReadBytes::.cpu.data        12224                       # Per-requestor bytes read from memory
system.mem_ctrls.requestorWriteBytes::.writebacks         8448                       # Per-requestor bytes write to memory
system.mem_ctrls.requestorReadRate::.cpu.inst 706686894.836713194847                       # Per-requestor bytes read from memory rate (Bytes/sec)
system.mem_ctrls.requestorReadRate::.cpu.data 283565539.734899640083                       # Per-requestor bytes read from memory rate (Bytes/sec)
system.mem_ctrls.requestorWriteRate::.writebacks 195971996.047155767679                       # Per-requestor bytes write to memory rate (Bytes/sec)
system.mem_ctrls.requestorReadAccesses::.cpu.inst          556                       # Per-requestor read serviced memory accesses
system.mem_ctrls.requestorReadAccesses::.cpu.data          192                       # Per-requestor read serviced memory accesses
system.mem_ctrls.requestorWriteAccesses::.writebacks          218                       # Per-requestor write serviced memory accesses
system.mem_ctrls.requestorReadTotalLat::.cpu.inst     12108750                       # Per-requestor read total memory access latency
system.mem_ctrls.requestorReadTotalLat::.cpu.data      5144300                       # Per-requestor read total memory access latency
system.mem_ctrls.requestorWriteTotalLat::.writebacks    617308900                       # Per-requestor write total memory access latency
system.mem_ctrls.requestorReadAvgLat::.cpu.inst     21778.33                       # Per-requestor read average memory access latency
system.mem_ctrls.requestorReadAvgLat::.cpu.data     26793.23                       # Per-requestor read average memory access latency
system.mem_ctrls.requestorWriteAvgLat::.writebacks   2831692.20                       # Per-requestor write average memory access latency
system.mem_ctrls.dram.bytes_read::.cpu.inst        35584                       # Number of bytes read from this memory
system.mem_ctrls.dram.bytes_read::.cpu.data        12288                       # Number of bytes read from this memory
system.mem_ctrls.dram.bytes_read::total         47872                       # Number of bytes read from this memory
system.mem_ctrls.dram.bytes_inst_read::.cpu.inst        35584                       # Number of instructions bytes read from this memory
system.mem_ctrls.dram.bytes_inst_read::total        35584                       # Number of instructions bytes read from this memory
system.mem_ctrls.dram.bytes_written::.writebacks           64                       # Number of bytes written to this memory
system.mem_ctrls.dram.bytes_written::total           64                       # Number of bytes written to this memory
system.mem_ctrls.dram.num_reads::.cpu.inst          556                       # Number of read requests responded to by this memory
system.mem_ctrls.dram.num_reads::.cpu.data          192                       # Number of read requests responded to by this memory
system.mem_ctrls.dram.num_reads::total            748                       # Number of read requests responded to by this memory
system.mem_ctrls.dram.num_writes::.writebacks            1                       # Number of write requests responded to by this memory
system.mem_ctrls.dram.num_writes::total             1                       # Number of write requests responded to by this memory
system.mem_ctrls.dram.bw_read::.cpu.inst    825457802                       # Total read bandwidth from this memory (bytes/s)
system.mem_ctrls.dram.bw_read::.cpu.data    285050176                       # Total read bandwidth from this memory (bytes/s)
system.mem_ctrls.dram.bw_read::total       1110507978                       # Total read bandwidth from this memory (bytes/s)
system.mem_ctrls.dram.bw_inst_read::.cpu.inst    825457802                       # Instruction read bandwidth from this memory (bytes/s)
system.mem_ctrls.dram.bw_inst_read::total    825457802                       # Instruction read bandwidth from this memory (bytes/s)
system.mem_ctrls.dram.bw_write::.writebacks      1484636                       # Write bandwidth from this memory (bytes/s)
system.mem_ctrls.dram.bw_write::total         1484636                       # Write bandwidth from this memory (bytes/s)
system.mem_ctrls.dram.bw_total::.writebacks      1484636                       # Total bandwidth to/from this memory (bytes/s)
system.mem_ctrls.dram.bw_total::.cpu.inst    825457802                       # Total bandwidth to/from this memory (bytes/s)
system.mem_ctrls.dram.bw_total::.cpu.data    285050176                       # Total bandwidth to/from this memory (bytes/s)
system.mem_ctrls.dram.bw_total::total      1111992614                       # Total bandwidth to/from this memory (bytes/s)
system.mem_ctrls.dram.readBursts                  667                       # Number of DRAM read bursts
system.mem_ctrls.dram.writeBursts                 132                       # Number of DRAM write bursts
system.mem_ctrls.dram.perBankRdBursts::0           65                       # Per bank write bursts
system.mem_ctrls.dram.perBankRdBursts::1            7                       # Per bank write bursts
system.mem_ctrls.dram.perBankRdBursts::2           45                       # Per bank write bursts
system.mem_ctrls.dram.perBankRdBursts::3           44                       # Per bank write bursts
system.mem_ctrls.dram.perBankRdBursts::4           34                       # Per bank write bursts
system.mem_ctrls.dram.perBankRdBursts::5           25                       # Per bank write bursts
system.mem_ctrls.dram.perBankRdBursts::6           64                       # Per bank write bursts
system.mem_ctrls.dram.perBankRdBursts::7           16                       # Per bank write bursts
system.mem_ctrls.dram.perBankRdBursts::8          109                       # Per bank write bursts
system.mem_ctrls.dram.perBankRdBursts::9           83                       # Per bank write bursts
system.mem_ctrls.dram.perBankRdBursts::10           46                       # Per bank write bursts
system.mem_ctrls.dram.perBankRdBursts::11           58                       # Per bank write bursts
system.mem_ctrls.dram.perBankRdBursts::12           46                       # Per bank write bursts
system.mem_ctrls.dram.perBankRdBursts::13           14                       # Per bank write bursts
system.mem_ctrls.dram.perBankRdBursts::14           10                       # Per bank write bursts
system.mem_ctrls.dram.perBankRdBursts::15            1                       # Per bank write bursts
system.mem_ctrls.dram.perBankWrBursts::0           25                       # Per bank write bursts
system.mem_ctrls.dram.perBankWrBursts::1            0                       # Per bank write bursts
system.mem_ctrls.dram.perBankWrBursts::2           14                       # Per bank write bursts
system.mem_ctrls.dram.perBankWrBursts::3            0                       # Per bank write bursts
system.mem_ctrls.dram.perBankWrBursts::4            4                       # Per bank write bursts
system.mem_ctrls.dram.perBankWrBursts::5            4                       # Per bank write bursts
system.mem_ctrls.dram.perBankWrBursts::6            2                       # Per bank write bursts
system.mem_ctrls.dram.perBankWrBursts::7            2                       # Per bank write bursts
system.mem_ctrls.dram.perBankWrBursts::8           32                       # Per bank write bursts
system.mem_ctrls.dram.perBankWrBursts::9            4                       # Per bank write bursts
system.mem_ctrls.dram.perBankWrBursts::10            8                       # Per bank write bursts
system.mem_ctrls.dram.perBankWrBursts::11           11                       # Per bank write bursts
system.mem_ctrls.dram.perBankWrBursts::12           26                       # Per bank write bursts
system.mem_ctrls.dram.perBankWrBursts::13            0                       # Per bank write bursts
system.mem_ctrls.dram.perBankWrBursts::14            0                       # Per bank write bursts
system.mem_ctrls.dram.perBankWrBursts::15            0                       # Per bank write bursts
system.mem_ctrls.dram.totQLat                 4746800                       # Total ticks spent queuing
system.mem_ctrls.dram.totBusLat               3335000                       # Total ticks spent in databus transfers
system.mem_ctrls.dram.totMemAccLat           17253050                       # Total ticks spent from burst creation until serviced by the DRAM
system.mem_ctrls.dram.avgQLat                 7116.64                       # Average queueing delay per DRAM burst
system.mem_ctrls.dram.avgBusLat               5000.00                       # Average bus latency per DRAM burst
system.mem_ctrls.dram.avgMemAccLat           25866.64                       # Average memory access latency per DRAM burst
system.mem_ctrls.dram.readRowHits                 538                       # Number of row buffer hits during reads
system.mem_ctrls.dram.writeRowHits                106                       # Number of row buffer hits during writes
system.mem_ctrls.dram.readRowHitRate            80.66                       # Row buffer hit rate for reads
system.mem_ctrls.dram.writeRowHitRate           80.30                       # Row buffer hit rate for writes
system.mem_ctrls.dram.bytesPerActivate::samples          144                       # Bytes accessed per row activation
system.mem_ctrls.dram.bytesPerActivate::mean   332.444444                       # Bytes accessed per row activation
system.mem_ctrls.dram.bytesPerActivate::gmean   216.935546                       # Bytes accessed per row activation
system.mem_ctrls.dram.bytesPerActivate::stdev   310.623145                       # Bytes accessed per row activation
system.mem_ctrls.dram.bytesPerActivate::0-127           35     24.31%     24.31% # Bytes accessed per row activation
system.mem_ctrls.dram.bytesPerActivate::128-255           40     27.78%     52.08% # Bytes accessed per row activation
system.mem_ctrls.dram.bytesPerActivate::256-383           24     16.67%     68.75% # Bytes accessed per row activation
system.mem_ctrls.dram.bytesPerActivate::384-511           11      7.64%     76.39% # Bytes accessed per row activation
system.mem_ctrls.dram.bytesPerActivate::512-639            7      4.86%     81.25% # Bytes accessed per row activation
system.mem_ctrls.dram.bytesPerActivate::640-767            6      4.17%     85.42% # Bytes accessed per row activation
system.mem_ctrls.dram.bytesPerActivate::768-895            4      2.78%     88.19% # Bytes accessed per row activation
system.mem_ctrls.dram.bytesPerActivate::896-1023            2      1.39%     89.58% # Bytes accessed per row activation
system.mem_ctrls.dram.bytesPerActivate::1024-1151           15     10.42%    100.00% # Bytes accessed per row activation
system.mem_ctrls.dram.bytesPerActivate::total          144                       # Bytes accessed per row activation
system.mem_ctrls.dram.bytesRead                 42688                       # Total number of bytes read from DRAM
system.mem_ctrls.dram.bytesWritten               8448                       # Total number of bytes written to DRAM
system.mem_ctrls.dram.avgRdBW              990.252435                       # Average DRAM read bandwidth in MiBytes/s
system.mem_ctrls.dram.avgWrBW              195.971996                       # Average DRAM write bandwidth in MiBytes/s
system.mem_ctrls.dram.peakBW                 12800.00                       # Theoretical peak bandwidth in MiByte/s
system.mem_ctrls.dram.busUtil                    9.27                       # Data bus utilization in percentage
system.mem_ctrls.dram.busUtilRead                7.74                       # Data bus utilization in percentage for reads
system.mem_ctrls.dram.busUtilWrite               1.53                       # Data bus utilization in percentage for writes
system.mem_ctrls.dram.pageHitRate               80.60                       # Row buffer hit rate, read and write combined
system.mem_ctrls.dram.power_state.pwrStateResidencyTicks::UNDEFINED     43108200                       # Cumulative time (in ticks) in various power states
system.mem_ctrls.dram.rank0.actEnergy          399840                       # Energy for activate commands per rank (pJ)
system.mem_ctrls.dram.rank0.preEnergy          193545                       # Energy for precharge commands per rank (pJ)
system.mem_ctrls.dram.rank0.readEnergy        2142000                       # Energy for read commands per rank (pJ)
system.mem_ctrls.dram.rank0.writeEnergy        266220                       # Energy for write commands per rank (pJ)
system.mem_ctrls.dram.rank0.refreshEnergy 3073200.000000                       # Energy for refresh commands per rank (pJ)
system.mem_ctrls.dram.rank0.actBackEnergy     18357420                       # Energy for active background per rank (pJ)
system.mem_ctrls.dram.rank0.preBackEnergy      1094880                       # Energy for precharge background per rank (pJ)
system.mem_ctrls.dram.rank0.actPowerDownEnergy            0                       # Energy for active power-down per rank (pJ)
system.mem_ctrls.dram.rank0.prePowerDownEnergy            0                       # Energy for precharge power-down per rank (pJ)
system.mem_ctrls.dram.rank0.selfRefreshEnergy            0                       # Energy for self refresh per rank (pJ)
system.mem_ctrls.dram.rank0.totalEnergy      25527105                       # Total energy per rank (pJ)
system.mem_ctrls.dram.rank0.averagePower   592.163556                       # Core power per rank (mW)
system.mem_ctrls.dram.rank0.totalIdleTime            0                       # Total Idle time Per DRAM Rank
system.mem_ctrls.dram.rank0.pwrStateTime::IDLE      2655700                       # Time in different power states
system.mem_ctrls.dram.rank0.pwrStateTime::REF      1300000                       # Time in different power states
system.mem_ctrls.dram.rank0.pwrStateTime::SREF            0                       # Time in different power states
system.mem_ctrls.dram.rank0.pwrStateTime::PRE_PDN            0                       # Time in different power states
system.mem_ctrls.dram.rank0.pwrStateTime::ACT     39152500                       # Time in different power states
system.mem_ctrls.dram.rank0.pwrStateTime::ACT_PDN            0                       # Time in different power states
system.mem_ctrls.dram.rank1.actEnergy          706860                       # Energy for activate commands per rank (pJ)
system.mem_ctrls.dram.rank1.preEnergy          352935                       # Energy for precharge commands per rank (pJ)
system.mem_ctrls.dram.rank1.readEnergy        2620380                       # Energy for read commands per rank (pJ)
system.mem_ctrls.dram.rank1.writeEnergy        422820                       # Energy for write commands per rank (pJ)
system.mem_ctrls.dram.rank1.refreshEnergy 3073200.000000                       # Energy for refresh commands per rank (pJ)
system.mem_ctrls.dram.rank1.actBackEnergy     18440070                       # Energy for active background per rank (pJ)
system.mem_ctrls.dram.rank1.preBackEnergy      1025280                       # Energy for precharge background per rank (pJ)
system.mem_ctrls.dram.rank1.actPowerDownEnergy            0                       # Energy for active power-down per rank (pJ)
system.mem_ctrls.dram.rank1.prePowerDownEnergy            0                       # Energy for precharge power-down per rank (pJ)
system.mem_ctrls.dram.rank1.selfRefreshEnergy            0                       # Energy for self refresh per rank (pJ)
system.mem_ctrls.dram.rank1.totalEnergy      26641545                       # Total energy per rank (pJ)
system.mem_ctrls.dram.rank1.averagePower   618.015714                       # Core power per rank (mW)
system.mem_ctrls.dram.rank1.totalIdleTime            0                       # Total Idle time Per DRAM Rank
system.mem_ctrls.dram.rank1.pwrStateTime::IDLE      2529700                       # Time in different power states
system.mem_ctrls.dram.rank1.pwrStateTime::REF      1300000                       # Time in different power states
system.mem_ctrls.dram.rank1.pwrStateTime::SREF            0                       # Time in different power states
system.mem_ctrls.dram.rank1.pwrStateTime::PRE_PDN            0                       # Time in different power states
system.mem_ctrls.dram.rank1.pwrStateTime::ACT     39278500                       # Time in different power states
system.mem_ctrls.dram.rank1.pwrStateTime::ACT_PDN            0                       # Time in different power states
system.mem_ctrls.power_state.pwrStateResidencyTicks::UNDEFINED     43108200                       # Cumulative time (in ticks) in various power states
system.membus.trans_dist::ReadResp                672                       # Transaction distribution
system.membus.trans_dist::WritebackDirty            1                       # Transaction distribution
system.membus.trans_dist::WritebackClean          233                       # Transaction distribution
system.membus.trans_dist::CleanEvict                3                       # Transaction distribution
system.membus.trans_dist::ReadExReq                76                       # Transaction distribution
system.membus.trans_dist::ReadExResp               76                       # Transaction distribution
system.membus.trans_dist::ReadCleanReq            556                       # Transaction distribution
system.membus.trans_dist::ReadSharedReq           116                       # Transaction distribution
system.membus.pkt_count_system.cpu.icache.mem_side_port::system.mem_ctrls.port         1345                       # Packet count per connected requestor and responder (bytes)
system.membus.pkt_count_system.cpu.dcache.mem_side_port::system.mem_ctrls.port          388                       # Packet count per connected requestor and responder (bytes)
system.membus.pkt_count::total                   1733                       # Packet count per connected requestor and responder (bytes)
system.membus.pkt_size_system.cpu.icache.mem_side_port::system.mem_ctrls.port        50496                       # Cumulative packet size per connected requestor and responder (bytes)
system.membus.pkt_size_system.cpu.dcache.mem_side_port::system.mem_ctrls.port        12352                       # Cumulative packet size per connected requestor and responder (bytes)
system.membus.pkt_size::total                   62848                       # Cumulative packet size per connected requestor and responder (bytes)
system.membus.snoops                                0                       # Total snoops (count)
system.membus.snoopTraffic                          0                       # Total snoop traffic (bytes)
system.membus.snoop_fanout::samples               748                       # Request fanout histogram
system.membus.snoop_fanout::mean             0.050802                       # Request fanout histogram
system.membus.snoop_fanout::stdev            0.219740                       # Request fanout histogram
system.membus.snoop_fanout::underflows              0      0.00%      0.00% # Request fanout histogram
system.membus.snoop_fanout::0                     710     94.92%     94.92% # Request fanout histogram
system.membus.snoop_fanout::1                      38      5.08%    100.00% # Request fanout histogram
system.membus.snoop_fanout::2                       0      0.00%    100.00% # Request fanout histogram
system.membus.snoop_fanout::overflows               0      0.00%    100.00% # Request fanout histogram
system.membus.snoop_fanout::min_value               0                       # Request fanout histogram
system.membus.snoop_fanout::max_value               1                       # Request fanout histogram
system.membus.snoop_fanout::total                 748                       # Request fanout histogram
system.membus.power_state.pwrStateResidencyTicks::UNDEFINED     43108200                       # Cumulative time (in ticks) in various power states
system.membus.reqLayer0.occupancy             2345000                       # Layer occupancy (ticks)
system.membus.reqLayer0.utilization               5.4                       # Layer utilization (%)
system.membus.respLayer1.occupancy            2939650                       # Layer occupancy (ticks)
system.membus.respLayer1.utilization              6.8                       # Layer utilization (%)
system.membus.respLayer2.occupancy            1037000                       # Layer occupancy (ticks)
system.membus.respLayer2.utilization              2.4                       # Layer utilization (%)
system.voltage_domain.voltage                       1                       # Voltage in Volts

---------- End Simulation Statistics   ----------
