
---------- Begin Simulation Statistics ----------
final_tick                               705605295000                       # Number of ticks from beginning of simulation (restored from checkpoints and never reset)
host_inst_rate                                 125887                       # Simulator instruction rate (inst/s)
host_mem_usage                                 713312                       # Number of bytes of host memory used
host_op_rate                                   231909                       # Simulator op (including micro ops) rate (op/s)
host_seconds                                   794.36                       # Real time elapsed on the host
host_tick_rate                              888263415                       # Simulator tick rate (ticks/s)
sim_freq                                 1000000000000                       # Frequency of simulated ticks
sim_insts                                   100000000                       # Number of instructions simulated
sim_ops                                     184220346                       # Number of ops (including micro ops) simulated
sim_seconds                                  0.705605                       # Number of seconds simulated
sim_ticks                                705605295000                       # Number of ticks simulated
system.cpu.committedInsts                   100000000                       # Number of instructions committed
system.cpu.committedOps                     184220346                       # Number of ops (including micro ops) committed
system.cpu.cpi                               7.056053                       # CPI: cycles per instruction
system.cpu.discardedOps                          4317                       # Number of ops (including micro ops) which were discarded before commit
system.cpu.idleCycles                       483913888                       # Total number of cycles that the object has spent stopped
system.cpu.ipc                               0.141722                       # IPC: instructions per cycle
system.cpu.numCycles                        705605295                       # number of cpu cycles simulated
system.cpu.numFetchSuspends                         0                       # Number of times Execute suspended instruction fetching
system.cpu.numWorkItemsCompleted                    0                       # number of work items this cpu completed
system.cpu.numWorkItemsStarted                      0                       # number of work items this cpu started
system.cpu.op_class_0::No_OpClass                   0      0.00%      0.00% # Class of committed instruction
system.cpu.op_class_0::IntAlu                97640466     53.00%     53.00% # Class of committed instruction
system.cpu.op_class_0::IntMult                 114699      0.06%     53.06% # Class of committed instruction
system.cpu.op_class_0::IntDiv                       0      0.00%     53.06% # Class of committed instruction
system.cpu.op_class_0::FloatAdd                     0      0.00%     53.06% # Class of committed instruction
system.cpu.op_class_0::FloatCmp                     0      0.00%     53.06% # Class of committed instruction
system.cpu.op_class_0::FloatCvt                     0      0.00%     53.06% # Class of committed instruction
system.cpu.op_class_0::FloatMult                    0      0.00%     53.06% # Class of committed instruction
system.cpu.op_class_0::FloatMultAcc                 0      0.00%     53.06% # Class of committed instruction
system.cpu.op_class_0::FloatDiv                     0      0.00%     53.06% # Class of committed instruction
system.cpu.op_class_0::FloatMisc                    0      0.00%     53.06% # Class of committed instruction
system.cpu.op_class_0::FloatSqrt                    0      0.00%     53.06% # Class of committed instruction
system.cpu.op_class_0::SimdAdd                      8      0.00%     53.06% # Class of committed instruction
system.cpu.op_class_0::SimdAddAcc                   0      0.00%     53.06% # Class of committed instruction
system.cpu.op_class_0::SimdAlu                      8      0.00%     53.06% # Class of committed instruction
system.cpu.op_class_0::SimdCmp                      6      0.00%     53.06% # Class of committed instruction
system.cpu.op_class_0::SimdCvt                      0      0.00%     53.06% # Class of committed instruction
system.cpu.op_class_0::SimdMisc                     1      0.00%     53.06% # Class of committed instruction
system.cpu.op_class_0::SimdMult                     0      0.00%     53.06% # Class of committed instruction
system.cpu.op_class_0::SimdMultAcc                  0      0.00%     53.06% # Class of committed instruction
system.cpu.op_class_0::SimdShift                    0      0.00%     53.06% # Class of committed instruction
system.cpu.op_class_0::SimdShiftAcc                 0      0.00%     53.06% # Class of committed instruction
system.cpu.op_class_0::SimdDiv                      0      0.00%     53.06% # Class of committed instruction
system.cpu.op_class_0::SimdSqrt                     0      0.00%     53.06% # Class of committed instruction
system.cpu.op_class_0::SimdFloatAdd                 0      0.00%     53.06% # Class of committed instruction
system.cpu.op_class_0::SimdFloatAlu                 0      0.00%     53.06% # Class of committed instruction
system.cpu.op_class_0::SimdFloatCmp                 0      0.00%     53.06% # Class of committed instruction
system.cpu.op_class_0::SimdFloatCvt                 0      0.00%     53.06% # Class of committed instruction
system.cpu.op_class_0::SimdFloatDiv                 0      0.00%     53.06% # Class of committed instruction
system.cpu.op_class_0::SimdFloatMisc                6      0.00%     53.06% # Class of committed instruction
system.cpu.op_class_0::SimdFloatMult                0      0.00%     53.06% # Class of committed instruction
system.cpu.op_class_0::SimdFloatMultAcc             0      0.00%     53.06% # Class of committed instruction
system.cpu.op_class_0::SimdFloatSqrt                0      0.00%     53.06% # Class of committed instruction
system.cpu.op_class_0::SimdReduceAdd                0      0.00%     53.06% # Class of committed instruction
system.cpu.op_class_0::SimdReduceAlu                0      0.00%     53.06% # Class of committed instruction
system.cpu.op_class_0::SimdReduceCmp                0      0.00%     53.06% # Class of committed instruction
system.cpu.op_class_0::SimdFloatReduceAdd            0      0.00%     53.06% # Class of committed instruction
system.cpu.op_class_0::SimdFloatReduceCmp            0      0.00%     53.06% # Class of committed instruction
system.cpu.op_class_0::SimdAes                      0      0.00%     53.06% # Class of committed instruction
system.cpu.op_class_0::SimdAesMix                   0      0.00%     53.06% # Class of committed instruction
system.cpu.op_class_0::SimdSha1Hash                 0      0.00%     53.06% # Class of committed instruction
system.cpu.op_class_0::SimdSha1Hash2                0      0.00%     53.06% # Class of committed instruction
system.cpu.op_class_0::SimdSha256Hash               0      0.00%     53.06% # Class of committed instruction
system.cpu.op_class_0::SimdSha256Hash2              0      0.00%     53.06% # Class of committed instruction
system.cpu.op_class_0::SimdShaSigma2                0      0.00%     53.06% # Class of committed instruction
system.cpu.op_class_0::SimdShaSigma3                0      0.00%     53.06% # Class of committed instruction
system.cpu.op_class_0::SimdPredAlu                  0      0.00%     53.06% # Class of committed instruction
system.cpu.op_class_0::MemRead                2082588      1.13%     54.19% # Class of committed instruction
system.cpu.op_class_0::MemWrite              84382564     45.81%    100.00% # Class of committed instruction
system.cpu.op_class_0::FloatMemRead                 0      0.00%    100.00% # Class of committed instruction
system.cpu.op_class_0::FloatMemWrite                0      0.00%    100.00% # Class of committed instruction
system.cpu.op_class_0::IprAccess                    0      0.00%    100.00% # Class of committed instruction
system.cpu.op_class_0::InstPrefetch                 0      0.00%    100.00% # Class of committed instruction
system.cpu.op_class_0::total                184220346                       # Class of committed instruction
system.cpu.tickCycles                       221691407                       # Number of cycles that the object actually ticked
system.cpu.workload.numSyscalls                    19                       # Number of system calls
system.membus.snoop_filter.hit_multi_requests            0                       # Number of requests hitting in the snoop filter with multiple (>1) holders of the requested data.
system.membus.snoop_filter.hit_multi_snoops            0                       # Number of snoops hitting in the snoop filter with multiple (>1) holders of the requested data.
system.membus.snoop_filter.hit_single_requests      5255069                       # Number of requests hitting in the snoop filter with a single holder of the requested data.
system.membus.snoop_filter.hit_single_snoops            0                       # Number of snoops hitting in the snoop filter with a single holder of the requested data.
system.membus.snoop_filter.tot_requests      10518888                       # Total number of requests made to the snoop filter.
system.membus.snoop_filter.tot_snoops               0                       # Total number of snoops made to the snoop filter.
system.tol2bus.snoop_filter.hit_multi_requests          374                       # Number of requests hitting in the snoop filter with multiple (>1) holders of the requested data.
system.tol2bus.snoop_filter.hit_multi_snoops            0                       # Number of snoops hitting in the snoop filter with multiple (>1) holders of the requested data.
system.tol2bus.snoop_filter.hit_single_requests      5265758                       # Number of requests hitting in the snoop filter with a single holder of the requested data.
system.tol2bus.snoop_filter.hit_single_snoops          591                       # Number of snoops hitting in the snoop filter with a single holder of the requested data.
system.tol2bus.snoop_filter.tot_requests     10533109                       # Total number of requests made to the snoop filter.
system.tol2bus.snoop_filter.tot_snoops            591                       # Total number of snoops made to the snoop filter.
system.clk_domain.clock                          1000                       # Clock period in ticks
system.cpu.branchPred.lookups                10658366                       # Number of BP lookups
system.cpu.branchPred.condPredicted          10650106                       # Number of conditional branches predicted
system.cpu.branchPred.condIncorrect              1446                       # Number of conditional branches incorrect
system.cpu.branchPred.BTBLookups             10650395                       # Number of BTB lookups
system.cpu.branchPred.BTBHits                10649079                       # Number of BTB hits
system.cpu.branchPred.BTBHitPct             99.987644                       # BTB Hit Percentage
system.cpu.branchPred.RASUsed                    2704                       # Number of times the RAS was used to get a target.
system.cpu.branchPred.RASIncorrect                  2                       # Number of incorrect RAS predictions.
system.cpu.branchPred.indirectLookups             195                       # Number of indirect predictor lookups.
system.cpu.branchPred.indirectHits                 22                       # Number of indirect target hits.
system.cpu.branchPred.indirectMisses              173                       # Number of indirect misses.
system.cpu.branchPred.indirectMispredicted          105                       # Number of mispredicted indirect branches.
system.cpu.dcache.demand_hits::.cpu.data     75854690                       # number of demand (read+write) hits
system.cpu.dcache.demand_hits::total         75854690                       # number of demand (read+write) hits
system.cpu.dcache.overall_hits::.cpu.data     75854721                       # number of overall hits
system.cpu.dcache.overall_hits::total        75854721                       # number of overall hits
system.cpu.dcache.demand_misses::.cpu.data     10527346                       # number of demand (read+write) misses
system.cpu.dcache.demand_misses::total       10527346                       # number of demand (read+write) misses
system.cpu.dcache.overall_misses::.cpu.data     10527386                       # number of overall misses
system.cpu.dcache.overall_misses::total      10527386                       # number of overall misses
system.cpu.dcache.demand_miss_latency::.cpu.data 1109464268999                       # number of demand (read+write) miss cycles
system.cpu.dcache.demand_miss_latency::total 1109464268999                       # number of demand (read+write) miss cycles
system.cpu.dcache.overall_miss_latency::.cpu.data 1109464268999                       # number of overall miss cycles
system.cpu.dcache.overall_miss_latency::total 1109464268999                       # number of overall miss cycles
system.cpu.dcache.demand_accesses::.cpu.data     86382036                       # number of demand (read+write) accesses
system.cpu.dcache.demand_accesses::total     86382036                       # number of demand (read+write) accesses
system.cpu.dcache.overall_accesses::.cpu.data     86382107                       # number of overall (read+write) accesses
system.cpu.dcache.overall_accesses::total     86382107                       # number of overall (read+write) accesses
system.cpu.dcache.demand_miss_rate::.cpu.data     0.121870                       # miss rate for demand accesses
system.cpu.dcache.demand_miss_rate::total     0.121870                       # miss rate for demand accesses
system.cpu.dcache.overall_miss_rate::.cpu.data     0.121870                       # miss rate for overall accesses
system.cpu.dcache.overall_miss_rate::total     0.121870                       # miss rate for overall accesses
system.cpu.dcache.demand_avg_miss_latency::.cpu.data 105388.791154                       # average overall miss latency
system.cpu.dcache.demand_avg_miss_latency::total 105388.791154                       # average overall miss latency
system.cpu.dcache.overall_avg_miss_latency::.cpu.data 105388.390717                       # average overall miss latency
system.cpu.dcache.overall_avg_miss_latency::total 105388.390717                       # average overall miss latency
system.cpu.dcache.blocked_cycles::no_mshrs          422                       # number of cycles access was blocked
system.cpu.dcache.blocked_cycles::no_targets            0                       # number of cycles access was blocked
system.cpu.dcache.blocked::no_mshrs                 4                       # number of cycles access was blocked
system.cpu.dcache.blocked::no_targets               0                       # number of cycles access was blocked
system.cpu.dcache.avg_blocked_cycles::no_mshrs   105.500000                       # average number of cycles each access was blocked
system.cpu.dcache.avg_blocked_cycles::no_targets          nan                       # average number of cycles each access was blocked
system.cpu.dcache.writebacks::.writebacks      5263921                       # number of writebacks
system.cpu.dcache.writebacks::total           5263921                       # number of writebacks
system.cpu.dcache.demand_mshr_hits::.cpu.data      5260630                       # number of demand (read+write) MSHR hits
system.cpu.dcache.demand_mshr_hits::total      5260630                       # number of demand (read+write) MSHR hits
system.cpu.dcache.overall_mshr_hits::.cpu.data      5260630                       # number of overall MSHR hits
system.cpu.dcache.overall_mshr_hits::total      5260630                       # number of overall MSHR hits
system.cpu.dcache.demand_mshr_misses::.cpu.data      5266716                       # number of demand (read+write) MSHR misses
system.cpu.dcache.demand_mshr_misses::total      5266716                       # number of demand (read+write) MSHR misses
system.cpu.dcache.overall_mshr_misses::.cpu.data      5266750                       # number of overall MSHR misses
system.cpu.dcache.overall_mshr_misses::total      5266750                       # number of overall MSHR misses
system.cpu.dcache.demand_mshr_miss_latency::.cpu.data 541771524000                       # number of demand (read+write) MSHR miss cycles
system.cpu.dcache.demand_mshr_miss_latency::total 541771524000                       # number of demand (read+write) MSHR miss cycles
system.cpu.dcache.overall_mshr_miss_latency::.cpu.data 541775969000                       # number of overall MSHR miss cycles
system.cpu.dcache.overall_mshr_miss_latency::total 541775969000                       # number of overall MSHR miss cycles
system.cpu.dcache.demand_mshr_miss_rate::.cpu.data     0.060970                       # mshr miss rate for demand accesses
system.cpu.dcache.demand_mshr_miss_rate::total     0.060970                       # mshr miss rate for demand accesses
system.cpu.dcache.overall_mshr_miss_rate::.cpu.data     0.060970                       # mshr miss rate for overall accesses
system.cpu.dcache.overall_mshr_miss_rate::total     0.060970                       # mshr miss rate for overall accesses
system.cpu.dcache.demand_avg_mshr_miss_latency::.cpu.data 102867.047321                       # average overall mshr miss latency
system.cpu.dcache.demand_avg_mshr_miss_latency::total 102867.047321                       # average overall mshr miss latency
system.cpu.dcache.overall_avg_mshr_miss_latency::.cpu.data 102867.227227                       # average overall mshr miss latency
system.cpu.dcache.overall_avg_mshr_miss_latency::total 102867.227227                       # average overall mshr miss latency
system.cpu.dcache.replacements                5265727                       # number of replacements
system.cpu.dcache.ReadReq_hits::.cpu.data      2041636                       # number of ReadReq hits
system.cpu.dcache.ReadReq_hits::total         2041636                       # number of ReadReq hits
system.cpu.dcache.ReadReq_misses::.cpu.data         2140                       # number of ReadReq misses
system.cpu.dcache.ReadReq_misses::total          2140                       # number of ReadReq misses
system.cpu.dcache.ReadReq_miss_latency::.cpu.data     81245000                       # number of ReadReq miss cycles
system.cpu.dcache.ReadReq_miss_latency::total     81245000                       # number of ReadReq miss cycles
system.cpu.dcache.ReadReq_accesses::.cpu.data      2043776                       # number of ReadReq accesses(hits+misses)
system.cpu.dcache.ReadReq_accesses::total      2043776                       # number of ReadReq accesses(hits+misses)
system.cpu.dcache.ReadReq_miss_rate::.cpu.data     0.001047                       # miss rate for ReadReq accesses
system.cpu.dcache.ReadReq_miss_rate::total     0.001047                       # miss rate for ReadReq accesses
system.cpu.dcache.ReadReq_avg_miss_latency::.cpu.data 37964.953271                       # average ReadReq miss latency
system.cpu.dcache.ReadReq_avg_miss_latency::total 37964.953271                       # average ReadReq miss latency
system.cpu.dcache.ReadReq_mshr_hits::.cpu.data           39                       # number of ReadReq MSHR hits
system.cpu.dcache.ReadReq_mshr_hits::total           39                       # number of ReadReq MSHR hits
system.cpu.dcache.ReadReq_mshr_misses::.cpu.data         2101                       # number of ReadReq MSHR misses
system.cpu.dcache.ReadReq_mshr_misses::total         2101                       # number of ReadReq MSHR misses
system.cpu.dcache.ReadReq_mshr_miss_latency::.cpu.data     74033000                       # number of ReadReq MSHR miss cycles
system.cpu.dcache.ReadReq_mshr_miss_latency::total     74033000                       # number of ReadReq MSHR miss cycles
system.cpu.dcache.ReadReq_mshr_miss_rate::.cpu.data     0.001028                       # mshr miss rate for ReadReq accesses
system.cpu.dcache.ReadReq_mshr_miss_rate::total     0.001028                       # mshr miss rate for ReadReq accesses
system.cpu.dcache.ReadReq_avg_mshr_miss_latency::.cpu.data 35237.029986                       # average ReadReq mshr miss latency
system.cpu.dcache.ReadReq_avg_mshr_miss_latency::total 35237.029986                       # average ReadReq mshr miss latency
system.cpu.dcache.WriteReq_hits::.cpu.data     73813054                       # number of WriteReq hits
system.cpu.dcache.WriteReq_hits::total       73813054                       # number of WriteReq hits
system.cpu.dcache.WriteReq_misses::.cpu.data     10525206                       # number of WriteReq misses
system.cpu.dcache.WriteReq_misses::total     10525206                       # number of WriteReq misses
system.cpu.dcache.WriteReq_miss_latency::.cpu.data 1109383023999                       # number of WriteReq miss cycles
system.cpu.dcache.WriteReq_miss_latency::total 1109383023999                       # number of WriteReq miss cycles
system.cpu.dcache.WriteReq_accesses::.cpu.data     84338260                       # number of WriteReq accesses(hits+misses)
system.cpu.dcache.WriteReq_accesses::total     84338260                       # number of WriteReq accesses(hits+misses)
system.cpu.dcache.WriteReq_miss_rate::.cpu.data     0.124798                       # miss rate for WriteReq accesses
system.cpu.dcache.WriteReq_miss_rate::total     0.124798                       # miss rate for WriteReq accesses
system.cpu.dcache.WriteReq_avg_miss_latency::.cpu.data 105402.499865                       # average WriteReq miss latency
system.cpu.dcache.WriteReq_avg_miss_latency::total 105402.499865                       # average WriteReq miss latency
system.cpu.dcache.WriteReq_mshr_hits::.cpu.data      5260591                       # number of WriteReq MSHR hits
system.cpu.dcache.WriteReq_mshr_hits::total      5260591                       # number of WriteReq MSHR hits
system.cpu.dcache.WriteReq_mshr_misses::.cpu.data      5264615                       # number of WriteReq MSHR misses
system.cpu.dcache.WriteReq_mshr_misses::total      5264615                       # number of WriteReq MSHR misses
system.cpu.dcache.WriteReq_mshr_miss_latency::.cpu.data 541697491000                       # number of WriteReq MSHR miss cycles
system.cpu.dcache.WriteReq_mshr_miss_latency::total 541697491000                       # number of WriteReq MSHR miss cycles
system.cpu.dcache.WriteReq_mshr_miss_rate::.cpu.data     0.062423                       # mshr miss rate for WriteReq accesses
system.cpu.dcache.WriteReq_mshr_miss_rate::total     0.062423                       # mshr miss rate for WriteReq accesses
system.cpu.dcache.WriteReq_avg_mshr_miss_latency::.cpu.data 102894.037076                       # average WriteReq mshr miss latency
system.cpu.dcache.WriteReq_avg_mshr_miss_latency::total 102894.037076                       # average WriteReq mshr miss latency
system.cpu.dcache.SoftPFReq_hits::.cpu.data           31                       # number of SoftPFReq hits
system.cpu.dcache.SoftPFReq_hits::total            31                       # number of SoftPFReq hits
system.cpu.dcache.SoftPFReq_misses::.cpu.data           40                       # number of SoftPFReq misses
system.cpu.dcache.SoftPFReq_misses::total           40                       # number of SoftPFReq misses
system.cpu.dcache.SoftPFReq_accesses::.cpu.data           71                       # number of SoftPFReq accesses(hits+misses)
system.cpu.dcache.SoftPFReq_accesses::total           71                       # number of SoftPFReq accesses(hits+misses)
system.cpu.dcache.SoftPFReq_miss_rate::.cpu.data     0.563380                       # miss rate for SoftPFReq accesses
system.cpu.dcache.SoftPFReq_miss_rate::total     0.563380                       # miss rate for SoftPFReq accesses
system.cpu.dcache.SoftPFReq_mshr_misses::.cpu.data           34                       # number of SoftPFReq MSHR misses
system.cpu.dcache.SoftPFReq_mshr_misses::total           34                       # number of SoftPFReq MSHR misses
system.cpu.dcache.SoftPFReq_mshr_miss_latency::.cpu.data      4445000                       # number of SoftPFReq MSHR miss cycles
system.cpu.dcache.SoftPFReq_mshr_miss_latency::total      4445000                       # number of SoftPFReq MSHR miss cycles
system.cpu.dcache.SoftPFReq_mshr_miss_rate::.cpu.data     0.478873                       # mshr miss rate for SoftPFReq accesses
system.cpu.dcache.SoftPFReq_mshr_miss_rate::total     0.478873                       # mshr miss rate for SoftPFReq accesses
system.cpu.dcache.SoftPFReq_avg_mshr_miss_latency::.cpu.data 130735.294118                       # average SoftPFReq mshr miss latency
system.cpu.dcache.SoftPFReq_avg_mshr_miss_latency::total 130735.294118                       # average SoftPFReq mshr miss latency
system.cpu.dcache.LoadLockedReq_hits::.cpu.data           33                       # number of LoadLockedReq hits
system.cpu.dcache.LoadLockedReq_hits::total           33                       # number of LoadLockedReq hits
system.cpu.dcache.LoadLockedReq_misses::.cpu.data            1                       # number of LoadLockedReq misses
system.cpu.dcache.LoadLockedReq_misses::total            1                       # number of LoadLockedReq misses
system.cpu.dcache.LoadLockedReq_miss_latency::.cpu.data       123000                       # number of LoadLockedReq miss cycles
system.cpu.dcache.LoadLockedReq_miss_latency::total       123000                       # number of LoadLockedReq miss cycles
system.cpu.dcache.LoadLockedReq_accesses::.cpu.data           34                       # number of LoadLockedReq accesses(hits+misses)
system.cpu.dcache.LoadLockedReq_accesses::total           34                       # number of LoadLockedReq accesses(hits+misses)
system.cpu.dcache.LoadLockedReq_miss_rate::.cpu.data     0.029412                       # miss rate for LoadLockedReq accesses
system.cpu.dcache.LoadLockedReq_miss_rate::total     0.029412                       # miss rate for LoadLockedReq accesses
system.cpu.dcache.LoadLockedReq_avg_miss_latency::.cpu.data       123000                       # average LoadLockedReq miss latency
system.cpu.dcache.LoadLockedReq_avg_miss_latency::total       123000                       # average LoadLockedReq miss latency
system.cpu.dcache.LoadLockedReq_mshr_misses::.cpu.data            1                       # number of LoadLockedReq MSHR misses
system.cpu.dcache.LoadLockedReq_mshr_misses::total            1                       # number of LoadLockedReq MSHR misses
system.cpu.dcache.LoadLockedReq_mshr_miss_latency::.cpu.data       121000                       # number of LoadLockedReq MSHR miss cycles
system.cpu.dcache.LoadLockedReq_mshr_miss_latency::total       121000                       # number of LoadLockedReq MSHR miss cycles
system.cpu.dcache.LoadLockedReq_mshr_miss_rate::.cpu.data     0.029412                       # mshr miss rate for LoadLockedReq accesses
system.cpu.dcache.LoadLockedReq_mshr_miss_rate::total     0.029412                       # mshr miss rate for LoadLockedReq accesses
system.cpu.dcache.LoadLockedReq_avg_mshr_miss_latency::.cpu.data       121000                       # average LoadLockedReq mshr miss latency
system.cpu.dcache.LoadLockedReq_avg_mshr_miss_latency::total       121000                       # average LoadLockedReq mshr miss latency
system.cpu.dcache.StoreCondReq_hits::.cpu.data           34                       # number of StoreCondReq hits
system.cpu.dcache.StoreCondReq_hits::total           34                       # number of StoreCondReq hits
system.cpu.dcache.StoreCondReq_accesses::.cpu.data           34                       # number of StoreCondReq accesses(hits+misses)
system.cpu.dcache.StoreCondReq_accesses::total           34                       # number of StoreCondReq accesses(hits+misses)
system.cpu.dcache.power_state.pwrStateResidencyTicks::UNDEFINED 705605295000                       # Cumulative time (in ticks) in various power states
system.cpu.dcache.tags.tagsinuse          1022.854688                       # Cycle average of tags in use
system.cpu.dcache.tags.total_refs            81121539                       # Total number of references to valid blocks.
system.cpu.dcache.tags.sampled_refs           5266751                       # Sample count of references to valid blocks.
system.cpu.dcache.tags.avg_refs             15.402577                       # Average number of references to valid blocks.
system.cpu.dcache.tags.warmup_cycle            223000                       # Cycle when the warmup percentage was hit.
system.cpu.dcache.tags.occ_blocks::.cpu.data  1022.854688                       # Average occupied blocks per requestor
system.cpu.dcache.tags.occ_percent::.cpu.data     0.998882                       # Average percentage of cache occupancy
system.cpu.dcache.tags.occ_percent::total     0.998882                       # Average percentage of cache occupancy
system.cpu.dcache.tags.occ_task_id_blocks::1024         1024                       # Occupied blocks per task id
system.cpu.dcache.tags.age_task_id_blocks_1024::0           76                       # Occupied blocks per task id
system.cpu.dcache.tags.age_task_id_blocks_1024::1          679                       # Occupied blocks per task id
system.cpu.dcache.tags.age_task_id_blocks_1024::2          269                       # Occupied blocks per task id
system.cpu.dcache.tags.occ_task_id_percent::1024            1                       # Percentage of cache occupancy per task id
system.cpu.dcache.tags.tag_accesses          91648926                       # Number of tag accesses
system.cpu.dcache.tags.data_accesses         91648926                       # Number of data accesses
system.cpu.dcache.tags.power_state.pwrStateResidencyTicks::UNDEFINED 705605295000                       # Cumulative time (in ticks) in various power states
system.cpu.dtb.instHits                             0                       # ITB inst hits
system.cpu.dtb.instMisses                           0                       # ITB inst misses
system.cpu.dtb.readHits                             0                       # DTB read hits
system.cpu.dtb.readMisses                           0                       # DTB read misses
system.cpu.dtb.writeHits                            0                       # DTB write hits
system.cpu.dtb.writeMisses                          0                       # DTB write misses
system.cpu.dtb.inserts                              0                       # Number of times an entry is inserted into the TLB
system.cpu.dtb.flushTlb                             0                       # Number of times complete TLB was flushed
system.cpu.dtb.flushTlbMva                          0                       # Number of times TLB was flushed by MVA
system.cpu.dtb.flushTlbMvaAsid                      0                       # Number of times TLB was flushed by MVA & ASID
system.cpu.dtb.flushTlbAsid                         0                       # Number of times TLB was flushed by ASID
system.cpu.dtb.flushedEntries                       0                       # Number of entries that have been flushed from TLB
system.cpu.dtb.alignFaults                          0                       # Number of TLB faults due to alignment restrictions
system.cpu.dtb.prefetchFaults                       0                       # Number of TLB faults due to prefetch
system.cpu.dtb.domainFaults                         0                       # Number of TLB faults due to domain restrictions
system.cpu.dtb.permsFaults                          0                       # Number of TLB faults due to permissions restrictions
system.cpu.dtb.readAccesses                         0                       # DTB read accesses
system.cpu.dtb.writeAccesses                        0                       # DTB write accesses
system.cpu.dtb.instAccesses                         0                       # ITB inst accesses
system.cpu.dtb.hits                                 0                       # Total TLB (inst and data) hits
system.cpu.dtb.misses                               0                       # Total TLB (inst and data) misses
system.cpu.dtb.accesses                             0                       # Total TLB (inst and data) accesses
system.cpu.dtb.stage2_mmu.stage2_tlb.instHits            0                       # ITB inst hits
system.cpu.dtb.stage2_mmu.stage2_tlb.instMisses            0                       # ITB inst misses
system.cpu.dtb.stage2_mmu.stage2_tlb.readHits            0                       # DTB read hits
system.cpu.dtb.stage2_mmu.stage2_tlb.readMisses            0                       # DTB read misses
system.cpu.dtb.stage2_mmu.stage2_tlb.writeHits            0                       # DTB write hits
system.cpu.dtb.stage2_mmu.stage2_tlb.writeMisses            0                       # DTB write misses
system.cpu.dtb.stage2_mmu.stage2_tlb.inserts            0                       # Number of times an entry is inserted into the TLB
system.cpu.dtb.stage2_mmu.stage2_tlb.flushTlb            0                       # Number of times complete TLB was flushed
system.cpu.dtb.stage2_mmu.stage2_tlb.flushTlbMva            0                       # Number of times TLB was flushed by MVA
system.cpu.dtb.stage2_mmu.stage2_tlb.flushTlbMvaAsid            0                       # Number of times TLB was flushed by MVA & ASID
system.cpu.dtb.stage2_mmu.stage2_tlb.flushTlbAsid            0                       # Number of times TLB was flushed by ASID
system.cpu.dtb.stage2_mmu.stage2_tlb.flushedEntries            0                       # Number of entries that have been flushed from TLB
system.cpu.dtb.stage2_mmu.stage2_tlb.alignFaults            0                       # Number of TLB faults due to alignment restrictions
system.cpu.dtb.stage2_mmu.stage2_tlb.prefetchFaults            0                       # Number of TLB faults due to prefetch
system.cpu.dtb.stage2_mmu.stage2_tlb.domainFaults            0                       # Number of TLB faults due to domain restrictions
system.cpu.dtb.stage2_mmu.stage2_tlb.permsFaults            0                       # Number of TLB faults due to permissions restrictions
system.cpu.dtb.stage2_mmu.stage2_tlb.readAccesses            0                       # DTB read accesses
system.cpu.dtb.stage2_mmu.stage2_tlb.writeAccesses            0                       # DTB write accesses
system.cpu.dtb.stage2_mmu.stage2_tlb.instAccesses            0                       # ITB inst accesses
system.cpu.dtb.stage2_mmu.stage2_tlb.hits            0                       # Total TLB (inst and data) hits
system.cpu.dtb.stage2_mmu.stage2_tlb.misses            0                       # Total TLB (inst and data) misses
system.cpu.dtb.stage2_mmu.stage2_tlb.accesses            0                       # Total TLB (inst and data) accesses
system.cpu.dtb.stage2_mmu.stage2_tlb.walker.walks            0                       # Table walker walks requested
system.cpu.dtb.stage2_mmu.stage2_tlb.walker.requestOrigin_Requested::Data            0                       # Table walker requests started/completed, data/inst
system.cpu.dtb.stage2_mmu.stage2_tlb.walker.requestOrigin_Requested::Inst            0                       # Table walker requests started/completed, data/inst
system.cpu.dtb.stage2_mmu.stage2_tlb.walker.requestOrigin_Requested::total            0                       # Table walker requests started/completed, data/inst
system.cpu.dtb.stage2_mmu.stage2_tlb.walker.requestOrigin_Completed::Data            0                       # Table walker requests started/completed, data/inst
system.cpu.dtb.stage2_mmu.stage2_tlb.walker.requestOrigin_Completed::Inst            0                       # Table walker requests started/completed, data/inst
system.cpu.dtb.stage2_mmu.stage2_tlb.walker.requestOrigin_Completed::total            0                       # Table walker requests started/completed, data/inst
system.cpu.dtb.stage2_mmu.stage2_tlb.walker.requestOrigin::total            0                       # Table walker requests started/completed, data/inst
system.cpu.dtb.stage2_mmu.stage2_tlb.walker.power_state.pwrStateResidencyTicks::UNDEFINED 705605295000                       # Cumulative time (in ticks) in various power states
system.cpu.dtb.walker.walks                         0                       # Table walker walks requested
system.cpu.dtb.walker.requestOrigin_Requested::Data            0                       # Table walker requests started/completed, data/inst
system.cpu.dtb.walker.requestOrigin_Requested::Inst            0                       # Table walker requests started/completed, data/inst
system.cpu.dtb.walker.requestOrigin_Requested::total            0                       # Table walker requests started/completed, data/inst
system.cpu.dtb.walker.requestOrigin_Completed::Data            0                       # Table walker requests started/completed, data/inst
system.cpu.dtb.walker.requestOrigin_Completed::Inst            0                       # Table walker requests started/completed, data/inst
system.cpu.dtb.walker.requestOrigin_Completed::total            0                       # Table walker requests started/completed, data/inst
system.cpu.dtb.walker.requestOrigin::total            0                       # Table walker requests started/completed, data/inst
system.cpu.dtb.walker.power_state.pwrStateResidencyTicks::UNDEFINED 705605295000                       # Cumulative time (in ticks) in various power states
system.cpu.fetch2.intInstructions            45069761                       # Number of integer instructions successfully decoded
system.cpu.fetch2.fpInstructions                    0                       # Number of floating point instructions successfully decoded
system.cpu.fetch2.vecInstructions                   0                       # Number of SIMD instructions successfully decoded
system.cpu.fetch2.loadInstructions            2086153                       # Number of memory load instructions successfully decoded
system.cpu.fetch2.storeInstructions            169140                       # Number of memory store instructions successfully decoded
system.cpu.fetch2.amoInstructions                   0                       # Number of memory atomic instructions successfully decoded
system.cpu.icache.demand_hits::.cpu.inst     32134062                       # number of demand (read+write) hits
system.cpu.icache.demand_hits::total         32134062                       # number of demand (read+write) hits
system.cpu.icache.overall_hits::.cpu.inst     32134062                       # number of overall hits
system.cpu.icache.overall_hits::total        32134062                       # number of overall hits
system.cpu.icache.demand_misses::.cpu.inst          600                       # number of demand (read+write) misses
system.cpu.icache.demand_misses::total            600                       # number of demand (read+write) misses
system.cpu.icache.overall_misses::.cpu.inst          600                       # number of overall misses
system.cpu.icache.overall_misses::total           600                       # number of overall misses
system.cpu.icache.demand_miss_latency::.cpu.inst     60863000                       # number of demand (read+write) miss cycles
system.cpu.icache.demand_miss_latency::total     60863000                       # number of demand (read+write) miss cycles
system.cpu.icache.overall_miss_latency::.cpu.inst     60863000                       # number of overall miss cycles
system.cpu.icache.overall_miss_latency::total     60863000                       # number of overall miss cycles
system.cpu.icache.demand_accesses::.cpu.inst     32134662                       # number of demand (read+write) accesses
system.cpu.icache.demand_accesses::total     32134662                       # number of demand (read+write) accesses
system.cpu.icache.overall_accesses::.cpu.inst     32134662                       # number of overall (read+write) accesses
system.cpu.icache.overall_accesses::total     32134662                       # number of overall (read+write) accesses
system.cpu.icache.demand_miss_rate::.cpu.inst     0.000019                       # miss rate for demand accesses
system.cpu.icache.demand_miss_rate::total     0.000019                       # miss rate for demand accesses
system.cpu.icache.overall_miss_rate::.cpu.inst     0.000019                       # miss rate for overall accesses
system.cpu.icache.overall_miss_rate::total     0.000019                       # miss rate for overall accesses
system.cpu.icache.demand_avg_miss_latency::.cpu.inst 101438.333333                       # average overall miss latency
system.cpu.icache.demand_avg_miss_latency::total 101438.333333                       # average overall miss latency
system.cpu.icache.overall_avg_miss_latency::.cpu.inst 101438.333333                       # average overall miss latency
system.cpu.icache.overall_avg_miss_latency::total 101438.333333                       # average overall miss latency
system.cpu.icache.blocked_cycles::no_mshrs            0                       # number of cycles access was blocked
system.cpu.icache.blocked_cycles::no_targets            0                       # number of cycles access was blocked
system.cpu.icache.blocked::no_mshrs                 0                       # number of cycles access was blocked
system.cpu.icache.blocked::no_targets               0                       # number of cycles access was blocked
system.cpu.icache.avg_blocked_cycles::no_mshrs          nan                       # average number of cycles each access was blocked
system.cpu.icache.avg_blocked_cycles::no_targets          nan                       # average number of cycles each access was blocked
system.cpu.icache.writebacks::.writebacks           31                       # number of writebacks
system.cpu.icache.writebacks::total                31                       # number of writebacks
system.cpu.icache.demand_mshr_misses::.cpu.inst          600                       # number of demand (read+write) MSHR misses
system.cpu.icache.demand_mshr_misses::total          600                       # number of demand (read+write) MSHR misses
system.cpu.icache.overall_mshr_misses::.cpu.inst          600                       # number of overall MSHR misses
system.cpu.icache.overall_mshr_misses::total          600                       # number of overall MSHR misses
system.cpu.icache.demand_mshr_miss_latency::.cpu.inst     59663000                       # number of demand (read+write) MSHR miss cycles
system.cpu.icache.demand_mshr_miss_latency::total     59663000                       # number of demand (read+write) MSHR miss cycles
system.cpu.icache.overall_mshr_miss_latency::.cpu.inst     59663000                       # number of overall MSHR miss cycles
system.cpu.icache.overall_mshr_miss_latency::total     59663000                       # number of overall MSHR miss cycles
system.cpu.icache.demand_mshr_miss_rate::.cpu.inst     0.000019                       # mshr miss rate for demand accesses
system.cpu.icache.demand_mshr_miss_rate::total     0.000019                       # mshr miss rate for demand accesses
system.cpu.icache.overall_mshr_miss_rate::.cpu.inst     0.000019                       # mshr miss rate for overall accesses
system.cpu.icache.overall_mshr_miss_rate::total     0.000019                       # mshr miss rate for overall accesses
system.cpu.icache.demand_avg_mshr_miss_latency::.cpu.inst 99438.333333                       # average overall mshr miss latency
system.cpu.icache.demand_avg_mshr_miss_latency::total 99438.333333                       # average overall mshr miss latency
system.cpu.icache.overall_avg_mshr_miss_latency::.cpu.inst 99438.333333                       # average overall mshr miss latency
system.cpu.icache.overall_avg_mshr_miss_latency::total 99438.333333                       # average overall mshr miss latency
system.cpu.icache.replacements                     31                       # number of replacements
system.cpu.icache.ReadReq_hits::.cpu.inst     32134062                       # number of ReadReq hits
system.cpu.icache.ReadReq_hits::total        32134062                       # number of ReadReq hits
system.cpu.icache.ReadReq_misses::.cpu.inst          600                       # number of ReadReq misses
system.cpu.icache.ReadReq_misses::total           600                       # number of ReadReq misses
system.cpu.icache.ReadReq_miss_latency::.cpu.inst     60863000                       # number of ReadReq miss cycles
system.cpu.icache.ReadReq_miss_latency::total     60863000                       # number of ReadReq miss cycles
system.cpu.icache.ReadReq_accesses::.cpu.inst     32134662                       # number of ReadReq accesses(hits+misses)
system.cpu.icache.ReadReq_accesses::total     32134662                       # number of ReadReq accesses(hits+misses)
system.cpu.icache.ReadReq_miss_rate::.cpu.inst     0.000019                       # miss rate for ReadReq accesses
system.cpu.icache.ReadReq_miss_rate::total     0.000019                       # miss rate for ReadReq accesses
system.cpu.icache.ReadReq_avg_miss_latency::.cpu.inst 101438.333333                       # average ReadReq miss latency
system.cpu.icache.ReadReq_avg_miss_latency::total 101438.333333                       # average ReadReq miss latency
system.cpu.icache.ReadReq_mshr_misses::.cpu.inst          600                       # number of ReadReq MSHR misses
system.cpu.icache.ReadReq_mshr_misses::total          600                       # number of ReadReq MSHR misses
system.cpu.icache.ReadReq_mshr_miss_latency::.cpu.inst     59663000                       # number of ReadReq MSHR miss cycles
system.cpu.icache.ReadReq_mshr_miss_latency::total     59663000                       # number of ReadReq MSHR miss cycles
system.cpu.icache.ReadReq_mshr_miss_rate::.cpu.inst     0.000019                       # mshr miss rate for ReadReq accesses
system.cpu.icache.ReadReq_mshr_miss_rate::total     0.000019                       # mshr miss rate for ReadReq accesses
system.cpu.icache.ReadReq_avg_mshr_miss_latency::.cpu.inst 99438.333333                       # average ReadReq mshr miss latency
system.cpu.icache.ReadReq_avg_mshr_miss_latency::total 99438.333333                       # average ReadReq mshr miss latency
system.cpu.icache.power_state.pwrStateResidencyTicks::UNDEFINED 705605295000                       # Cumulative time (in ticks) in various power states
system.cpu.icache.tags.tagsinuse           474.095034                       # Cycle average of tags in use
system.cpu.icache.tags.total_refs            32134662                       # Total number of references to valid blocks.
system.cpu.icache.tags.sampled_refs               600                       # Sample count of references to valid blocks.
system.cpu.icache.tags.avg_refs          53557.770000                       # Average number of references to valid blocks.
system.cpu.icache.tags.warmup_cycle            108000                       # Cycle when the warmup percentage was hit.
system.cpu.icache.tags.occ_blocks::.cpu.inst   474.095034                       # Average occupied blocks per requestor
system.cpu.icache.tags.occ_percent::.cpu.inst     0.231492                       # Average percentage of cache occupancy
system.cpu.icache.tags.occ_percent::total     0.231492                       # Average percentage of cache occupancy
system.cpu.icache.tags.occ_task_id_blocks::1024          569                       # Occupied blocks per task id
system.cpu.icache.tags.age_task_id_blocks_1024::4          569                       # Occupied blocks per task id
system.cpu.icache.tags.occ_task_id_percent::1024     0.277832                       # Percentage of cache occupancy per task id
system.cpu.icache.tags.tag_accesses          32135262                       # Number of tag accesses
system.cpu.icache.tags.data_accesses         32135262                       # Number of data accesses
system.cpu.icache.tags.power_state.pwrStateResidencyTicks::UNDEFINED 705605295000                       # Cumulative time (in ticks) in various power states
system.cpu.itb.instHits                             0                       # ITB inst hits
system.cpu.itb.instMisses                           0                       # ITB inst misses
system.cpu.itb.readHits                             0                       # DTB read hits
system.cpu.itb.readMisses                           0                       # DTB read misses
system.cpu.itb.writeHits                            0                       # DTB write hits
system.cpu.itb.writeMisses                          0                       # DTB write misses
system.cpu.itb.inserts                              0                       # Number of times an entry is inserted into the TLB
system.cpu.itb.flushTlb                             0                       # Number of times complete TLB was flushed
system.cpu.itb.flushTlbMva                          0                       # Number of times TLB was flushed by MVA
system.cpu.itb.flushTlbMvaAsid                      0                       # Number of times TLB was flushed by MVA & ASID
system.cpu.itb.flushTlbAsid                         0                       # Number of times TLB was flushed by ASID
system.cpu.itb.flushedEntries                       0                       # Number of entries that have been flushed from TLB
system.cpu.itb.alignFaults                          0                       # Number of TLB faults due to alignment restrictions
system.cpu.itb.prefetchFaults                       0                       # Number of TLB faults due to prefetch
system.cpu.itb.domainFaults                         0                       # Number of TLB faults due to domain restrictions
system.cpu.itb.permsFaults                          0                       # Number of TLB faults due to permissions restrictions
system.cpu.itb.readAccesses                         0                       # DTB read accesses
system.cpu.itb.writeAccesses                        0                       # DTB write accesses
system.cpu.itb.instAccesses                         0                       # ITB inst accesses
system.cpu.itb.hits                                 0                       # Total TLB (inst and data) hits
system.cpu.itb.misses                               0                       # Total TLB (inst and data) misses
system.cpu.itb.accesses                             0                       # Total TLB (inst and data) accesses
system.cpu.itb.stage2_mmu.stage2_tlb.instHits            0                       # ITB inst hits
system.cpu.itb.stage2_mmu.stage2_tlb.instMisses            0                       # ITB inst misses
system.cpu.itb.stage2_mmu.stage2_tlb.readHits            0                       # DTB read hits
system.cpu.itb.stage2_mmu.stage2_tlb.readMisses            0                       # DTB read misses
system.cpu.itb.stage2_mmu.stage2_tlb.writeHits            0                       # DTB write hits
system.cpu.itb.stage2_mmu.stage2_tlb.writeMisses            0                       # DTB write misses
system.cpu.itb.stage2_mmu.stage2_tlb.inserts            0                       # Number of times an entry is inserted into the TLB
system.cpu.itb.stage2_mmu.stage2_tlb.flushTlb            0                       # Number of times complete TLB was flushed
system.cpu.itb.stage2_mmu.stage2_tlb.flushTlbMva            0                       # Number of times TLB was flushed by MVA
system.cpu.itb.stage2_mmu.stage2_tlb.flushTlbMvaAsid            0                       # Number of times TLB was flushed by MVA & ASID
system.cpu.itb.stage2_mmu.stage2_tlb.flushTlbAsid            0                       # Number of times TLB was flushed by ASID
system.cpu.itb.stage2_mmu.stage2_tlb.flushedEntries            0                       # Number of entries that have been flushed from TLB
system.cpu.itb.stage2_mmu.stage2_tlb.alignFaults            0                       # Number of TLB faults due to alignment restrictions
system.cpu.itb.stage2_mmu.stage2_tlb.prefetchFaults            0                       # Number of TLB faults due to prefetch
system.cpu.itb.stage2_mmu.stage2_tlb.domainFaults            0                       # Number of TLB faults due to domain restrictions
system.cpu.itb.stage2_mmu.stage2_tlb.permsFaults            0                       # Number of TLB faults due to permissions restrictions
system.cpu.itb.stage2_mmu.stage2_tlb.readAccesses            0                       # DTB read accesses
system.cpu.itb.stage2_mmu.stage2_tlb.writeAccesses            0                       # DTB write accesses
system.cpu.itb.stage2_mmu.stage2_tlb.instAccesses            0                       # ITB inst accesses
system.cpu.itb.stage2_mmu.stage2_tlb.hits            0                       # Total TLB (inst and data) hits
system.cpu.itb.stage2_mmu.stage2_tlb.misses            0                       # Total TLB (inst and data) misses
system.cpu.itb.stage2_mmu.stage2_tlb.accesses            0                       # Total TLB (inst and data) accesses
system.cpu.itb.stage2_mmu.stage2_tlb.walker.walks            0                       # Table walker walks requested
system.cpu.itb.stage2_mmu.stage2_tlb.walker.requestOrigin_Requested::Data            0                       # Table walker requests started/completed, data/inst
system.cpu.itb.stage2_mmu.stage2_tlb.walker.requestOrigin_Requested::Inst            0                       # Table walker requests started/completed, data/inst
system.cpu.itb.stage2_mmu.stage2_tlb.walker.requestOrigin_Requested::total            0                       # Table walker requests started/completed, data/inst
system.cpu.itb.stage2_mmu.stage2_tlb.walker.requestOrigin_Completed::Data            0                       # Table walker requests started/completed, data/inst
system.cpu.itb.stage2_mmu.stage2_tlb.walker.requestOrigin_Completed::Inst            0                       # Table walker requests started/completed, data/inst
system.cpu.itb.stage2_mmu.stage2_tlb.walker.requestOrigin_Completed::total            0                       # Table walker requests started/completed, data/inst
system.cpu.itb.stage2_mmu.stage2_tlb.walker.requestOrigin::total            0                       # Table walker requests started/completed, data/inst
system.cpu.itb.stage2_mmu.stage2_tlb.walker.power_state.pwrStateResidencyTicks::UNDEFINED 705605295000                       # Cumulative time (in ticks) in various power states
system.cpu.itb.walker.walks                         0                       # Table walker walks requested
system.cpu.itb.walker.requestOrigin_Requested::Data            0                       # Table walker requests started/completed, data/inst
system.cpu.itb.walker.requestOrigin_Requested::Inst            0                       # Table walker requests started/completed, data/inst
system.cpu.itb.walker.requestOrigin_Requested::total            0                       # Table walker requests started/completed, data/inst
system.cpu.itb.walker.requestOrigin_Completed::Data            0                       # Table walker requests started/completed, data/inst
system.cpu.itb.walker.requestOrigin_Completed::Inst            0                       # Table walker requests started/completed, data/inst
system.cpu.itb.walker.requestOrigin_Completed::total            0                       # Table walker requests started/completed, data/inst
system.cpu.itb.walker.requestOrigin::total            0                       # Table walker requests started/completed, data/inst
system.cpu.itb.walker.power_state.pwrStateResidencyTicks::UNDEFINED 705605295000                       # Cumulative time (in ticks) in various power states
system.cpu.power_state.pwrStateResidencyTicks::ON 705605295000                       # Cumulative time (in ticks) in various power states
system.cpu.thread_0.numInsts                100000000                       # Number of Instructions committed
system.cpu.thread_0.numOps                  184220346                       # Number of Ops committed
system.cpu.thread_0.numMemRefs                      0                       # Number of Memory References
system.cpu_clk_domain.clock                      1000                       # Clock period in ticks
system.cpu_voltage_domain.voltage                   1                       # Voltage in Volts
system.l2.demand_hits::.cpu.inst                   30                       # number of demand (read+write) hits
system.l2.demand_hits::.cpu.data                 3486                       # number of demand (read+write) hits
system.l2.demand_hits::total                     3516                       # number of demand (read+write) hits
system.l2.overall_hits::.cpu.inst                  30                       # number of overall hits
system.l2.overall_hits::.cpu.data                3486                       # number of overall hits
system.l2.overall_hits::total                    3516                       # number of overall hits
system.l2.demand_misses::.cpu.inst                570                       # number of demand (read+write) misses
system.l2.demand_misses::.cpu.data            5263265                       # number of demand (read+write) misses
system.l2.demand_misses::total                5263835                       # number of demand (read+write) misses
system.l2.overall_misses::.cpu.inst               570                       # number of overall misses
system.l2.overall_misses::.cpu.data           5263265                       # number of overall misses
system.l2.overall_misses::total               5263835                       # number of overall misses
system.l2.demand_miss_latency::.cpu.inst     57190000                       # number of demand (read+write) miss cycles
system.l2.demand_miss_latency::.cpu.data 525891310000                       # number of demand (read+write) miss cycles
system.l2.demand_miss_latency::total     525948500000                       # number of demand (read+write) miss cycles
system.l2.overall_miss_latency::.cpu.inst     57190000                       # number of overall miss cycles
system.l2.overall_miss_latency::.cpu.data 525891310000                       # number of overall miss cycles
system.l2.overall_miss_latency::total    525948500000                       # number of overall miss cycles
system.l2.demand_accesses::.cpu.inst              600                       # number of demand (read+write) accesses
system.l2.demand_accesses::.cpu.data          5266751                       # number of demand (read+write) accesses
system.l2.demand_accesses::total              5267351                       # number of demand (read+write) accesses
system.l2.overall_accesses::.cpu.inst             600                       # number of overall (read+write) accesses
system.l2.overall_accesses::.cpu.data         5266751                       # number of overall (read+write) accesses
system.l2.overall_accesses::total             5267351                       # number of overall (read+write) accesses
system.l2.demand_miss_rate::.cpu.inst        0.950000                       # miss rate for demand accesses
system.l2.demand_miss_rate::.cpu.data        0.999338                       # miss rate for demand accesses
system.l2.demand_miss_rate::total            0.999332                       # miss rate for demand accesses
system.l2.overall_miss_rate::.cpu.inst       0.950000                       # miss rate for overall accesses
system.l2.overall_miss_rate::.cpu.data       0.999338                       # miss rate for overall accesses
system.l2.overall_miss_rate::total           0.999332                       # miss rate for overall accesses
system.l2.demand_avg_miss_latency::.cpu.inst 100333.333333                       # average overall miss latency
system.l2.demand_avg_miss_latency::.cpu.data 99917.315583                       # average overall miss latency
system.l2.demand_avg_miss_latency::total 99917.360632                       # average overall miss latency
system.l2.overall_avg_miss_latency::.cpu.inst 100333.333333                       # average overall miss latency
system.l2.overall_avg_miss_latency::.cpu.data 99917.315583                       # average overall miss latency
system.l2.overall_avg_miss_latency::total 99917.360632                       # average overall miss latency
system.l2.blocked_cycles::no_mshrs                  0                       # number of cycles access was blocked
system.l2.blocked_cycles::no_targets                0                       # number of cycles access was blocked
system.l2.blocked::no_mshrs                         0                       # number of cycles access was blocked
system.l2.blocked::no_targets                       0                       # number of cycles access was blocked
system.l2.avg_blocked_cycles::no_mshrs            nan                       # average number of cycles each access was blocked
system.l2.avg_blocked_cycles::no_targets          nan                       # average number of cycles each access was blocked
system.l2.writebacks::.writebacks             5254829                       # number of writebacks
system.l2.writebacks::total                   5254829                       # number of writebacks
system.l2.demand_mshr_hits::.cpu.inst               1                       # number of demand (read+write) MSHR hits
system.l2.demand_mshr_hits::.cpu.data               4                       # number of demand (read+write) MSHR hits
system.l2.demand_mshr_hits::total                   5                       # number of demand (read+write) MSHR hits
system.l2.overall_mshr_hits::.cpu.inst              1                       # number of overall MSHR hits
system.l2.overall_mshr_hits::.cpu.data              4                       # number of overall MSHR hits
system.l2.overall_mshr_hits::total                  5                       # number of overall MSHR hits
system.l2.demand_mshr_misses::.cpu.inst           569                       # number of demand (read+write) MSHR misses
system.l2.demand_mshr_misses::.cpu.data       5263261                       # number of demand (read+write) MSHR misses
system.l2.demand_mshr_misses::total           5263830                       # number of demand (read+write) MSHR misses
system.l2.overall_mshr_misses::.cpu.inst          569                       # number of overall MSHR misses
system.l2.overall_mshr_misses::.cpu.data      5263261                       # number of overall MSHR misses
system.l2.overall_mshr_misses::total          5263830                       # number of overall MSHR misses
system.l2.demand_mshr_miss_latency::.cpu.inst     45693000                       # number of demand (read+write) MSHR miss cycles
system.l2.demand_mshr_miss_latency::.cpu.data 420625757000                       # number of demand (read+write) MSHR miss cycles
system.l2.demand_mshr_miss_latency::total 420671450000                       # number of demand (read+write) MSHR miss cycles
system.l2.overall_mshr_miss_latency::.cpu.inst     45693000                       # number of overall MSHR miss cycles
system.l2.overall_mshr_miss_latency::.cpu.data 420625757000                       # number of overall MSHR miss cycles
system.l2.overall_mshr_miss_latency::total 420671450000                       # number of overall MSHR miss cycles
system.l2.demand_mshr_miss_rate::.cpu.inst     0.948333                       # mshr miss rate for demand accesses
system.l2.demand_mshr_miss_rate::.cpu.data     0.999337                       # mshr miss rate for demand accesses
system.l2.demand_mshr_miss_rate::total       0.999332                       # mshr miss rate for demand accesses
system.l2.overall_mshr_miss_rate::.cpu.inst     0.948333                       # mshr miss rate for overall accesses
system.l2.overall_mshr_miss_rate::.cpu.data     0.999337                       # mshr miss rate for overall accesses
system.l2.overall_mshr_miss_rate::total      0.999332                       # mshr miss rate for overall accesses
system.l2.demand_avg_mshr_miss_latency::.cpu.inst 80304.042179                       # average overall mshr miss latency
system.l2.demand_avg_mshr_miss_latency::.cpu.data 79917.328250                       # average overall mshr miss latency
system.l2.demand_avg_mshr_miss_latency::total 79917.370052                       # average overall mshr miss latency
system.l2.overall_avg_mshr_miss_latency::.cpu.inst 80304.042179                       # average overall mshr miss latency
system.l2.overall_avg_mshr_miss_latency::.cpu.data 79917.328250                       # average overall mshr miss latency
system.l2.overall_avg_mshr_miss_latency::total 79917.370052                       # average overall mshr miss latency
system.l2.replacements                        5255649                       # number of replacements
system.l2.WritebackDirty_hits::.writebacks      5263921                       # number of WritebackDirty hits
system.l2.WritebackDirty_hits::total          5263921                       # number of WritebackDirty hits
system.l2.WritebackDirty_accesses::.writebacks      5263921                       # number of WritebackDirty accesses(hits+misses)
system.l2.WritebackDirty_accesses::total      5263921                       # number of WritebackDirty accesses(hits+misses)
system.l2.WritebackClean_hits::.writebacks           29                       # number of WritebackClean hits
system.l2.WritebackClean_hits::total               29                       # number of WritebackClean hits
system.l2.WritebackClean_accesses::.writebacks           29                       # number of WritebackClean accesses(hits+misses)
system.l2.WritebackClean_accesses::total           29                       # number of WritebackClean accesses(hits+misses)
system.l2.ReadExReq_hits::.cpu.data              1625                       # number of ReadExReq hits
system.l2.ReadExReq_hits::total                  1625                       # number of ReadExReq hits
system.l2.ReadExReq_misses::.cpu.data         5262990                       # number of ReadExReq misses
system.l2.ReadExReq_misses::total             5262990                       # number of ReadExReq misses
system.l2.ReadExReq_miss_latency::.cpu.data 525861446000                       # number of ReadExReq miss cycles
system.l2.ReadExReq_miss_latency::total  525861446000                       # number of ReadExReq miss cycles
system.l2.ReadExReq_accesses::.cpu.data       5264615                       # number of ReadExReq accesses(hits+misses)
system.l2.ReadExReq_accesses::total           5264615                       # number of ReadExReq accesses(hits+misses)
system.l2.ReadExReq_miss_rate::.cpu.data     0.999691                       # miss rate for ReadExReq accesses
system.l2.ReadExReq_miss_rate::total         0.999691                       # miss rate for ReadExReq accesses
system.l2.ReadExReq_avg_miss_latency::.cpu.data 99916.862088                       # average ReadExReq miss latency
system.l2.ReadExReq_avg_miss_latency::total 99916.862088                       # average ReadExReq miss latency
system.l2.ReadExReq_mshr_misses::.cpu.data      5262990                       # number of ReadExReq MSHR misses
system.l2.ReadExReq_mshr_misses::total        5262990                       # number of ReadExReq MSHR misses
system.l2.ReadExReq_mshr_miss_latency::.cpu.data 420601646000                       # number of ReadExReq MSHR miss cycles
system.l2.ReadExReq_mshr_miss_latency::total 420601646000                       # number of ReadExReq MSHR miss cycles
system.l2.ReadExReq_mshr_miss_rate::.cpu.data     0.999691                       # mshr miss rate for ReadExReq accesses
system.l2.ReadExReq_mshr_miss_rate::total     0.999691                       # mshr miss rate for ReadExReq accesses
system.l2.ReadExReq_avg_mshr_miss_latency::.cpu.data 79916.862088                       # average ReadExReq mshr miss latency
system.l2.ReadExReq_avg_mshr_miss_latency::total 79916.862088                       # average ReadExReq mshr miss latency
system.l2.ReadCleanReq_hits::.cpu.inst             30                       # number of ReadCleanReq hits
system.l2.ReadCleanReq_hits::total                 30                       # number of ReadCleanReq hits
system.l2.ReadCleanReq_misses::.cpu.inst          570                       # number of ReadCleanReq misses
system.l2.ReadCleanReq_misses::total              570                       # number of ReadCleanReq misses
system.l2.ReadCleanReq_miss_latency::.cpu.inst     57190000                       # number of ReadCleanReq miss cycles
system.l2.ReadCleanReq_miss_latency::total     57190000                       # number of ReadCleanReq miss cycles
system.l2.ReadCleanReq_accesses::.cpu.inst          600                       # number of ReadCleanReq accesses(hits+misses)
system.l2.ReadCleanReq_accesses::total            600                       # number of ReadCleanReq accesses(hits+misses)
system.l2.ReadCleanReq_miss_rate::.cpu.inst     0.950000                       # miss rate for ReadCleanReq accesses
system.l2.ReadCleanReq_miss_rate::total      0.950000                       # miss rate for ReadCleanReq accesses
system.l2.ReadCleanReq_avg_miss_latency::.cpu.inst 100333.333333                       # average ReadCleanReq miss latency
system.l2.ReadCleanReq_avg_miss_latency::total 100333.333333                       # average ReadCleanReq miss latency
system.l2.ReadCleanReq_mshr_hits::.cpu.inst            1                       # number of ReadCleanReq MSHR hits
system.l2.ReadCleanReq_mshr_hits::total             1                       # number of ReadCleanReq MSHR hits
system.l2.ReadCleanReq_mshr_misses::.cpu.inst          569                       # number of ReadCleanReq MSHR misses
system.l2.ReadCleanReq_mshr_misses::total          569                       # number of ReadCleanReq MSHR misses
system.l2.ReadCleanReq_mshr_miss_latency::.cpu.inst     45693000                       # number of ReadCleanReq MSHR miss cycles
system.l2.ReadCleanReq_mshr_miss_latency::total     45693000                       # number of ReadCleanReq MSHR miss cycles
system.l2.ReadCleanReq_mshr_miss_rate::.cpu.inst     0.948333                       # mshr miss rate for ReadCleanReq accesses
system.l2.ReadCleanReq_mshr_miss_rate::total     0.948333                       # mshr miss rate for ReadCleanReq accesses
system.l2.ReadCleanReq_avg_mshr_miss_latency::.cpu.inst 80304.042179                       # average ReadCleanReq mshr miss latency
system.l2.ReadCleanReq_avg_mshr_miss_latency::total 80304.042179                       # average ReadCleanReq mshr miss latency
system.l2.ReadSharedReq_hits::.cpu.data          1861                       # number of ReadSharedReq hits
system.l2.ReadSharedReq_hits::total              1861                       # number of ReadSharedReq hits
system.l2.ReadSharedReq_misses::.cpu.data          275                       # number of ReadSharedReq misses
system.l2.ReadSharedReq_misses::total             275                       # number of ReadSharedReq misses
system.l2.ReadSharedReq_miss_latency::.cpu.data     29864000                       # number of ReadSharedReq miss cycles
system.l2.ReadSharedReq_miss_latency::total     29864000                       # number of ReadSharedReq miss cycles
system.l2.ReadSharedReq_accesses::.cpu.data         2136                       # number of ReadSharedReq accesses(hits+misses)
system.l2.ReadSharedReq_accesses::total          2136                       # number of ReadSharedReq accesses(hits+misses)
system.l2.ReadSharedReq_miss_rate::.cpu.data     0.128745                       # miss rate for ReadSharedReq accesses
system.l2.ReadSharedReq_miss_rate::total     0.128745                       # miss rate for ReadSharedReq accesses
system.l2.ReadSharedReq_avg_miss_latency::.cpu.data 108596.363636                       # average ReadSharedReq miss latency
system.l2.ReadSharedReq_avg_miss_latency::total 108596.363636                       # average ReadSharedReq miss latency
system.l2.ReadSharedReq_mshr_hits::.cpu.data            4                       # number of ReadSharedReq MSHR hits
system.l2.ReadSharedReq_mshr_hits::total            4                       # number of ReadSharedReq MSHR hits
system.l2.ReadSharedReq_mshr_misses::.cpu.data          271                       # number of ReadSharedReq MSHR misses
system.l2.ReadSharedReq_mshr_misses::total          271                       # number of ReadSharedReq MSHR misses
system.l2.ReadSharedReq_mshr_miss_latency::.cpu.data     24111000                       # number of ReadSharedReq MSHR miss cycles
system.l2.ReadSharedReq_mshr_miss_latency::total     24111000                       # number of ReadSharedReq MSHR miss cycles
system.l2.ReadSharedReq_mshr_miss_rate::.cpu.data     0.126873                       # mshr miss rate for ReadSharedReq accesses
system.l2.ReadSharedReq_mshr_miss_rate::total     0.126873                       # mshr miss rate for ReadSharedReq accesses
system.l2.ReadSharedReq_avg_mshr_miss_latency::.cpu.data 88970.479705                       # average ReadSharedReq mshr miss latency
system.l2.ReadSharedReq_avg_mshr_miss_latency::total 88970.479705                       # average ReadSharedReq mshr miss latency
system.l2.power_state.pwrStateResidencyTicks::UNDEFINED 705605295000                       # Cumulative time (in ticks) in various power states
system.l2.tags.tagsinuse                  8137.107942                       # Cycle average of tags in use
system.l2.tags.total_refs                    10532730                       # Total number of references to valid blocks.
system.l2.tags.sampled_refs                   5263841                       # Sample count of references to valid blocks.
system.l2.tags.avg_refs                      2.000959                       # Average number of references to valid blocks.
system.l2.tags.warmup_cycle                     87000                       # Cycle when the warmup percentage was hit.
system.l2.tags.occ_blocks::.writebacks       0.009942                       # Average occupied blocks per requestor
system.l2.tags.occ_blocks::.cpu.inst         3.324869                       # Average occupied blocks per requestor
system.l2.tags.occ_blocks::.cpu.data      8133.773131                       # Average occupied blocks per requestor
system.l2.tags.occ_percent::.writebacks      0.000001                       # Average percentage of cache occupancy
system.l2.tags.occ_percent::.cpu.inst        0.000406                       # Average percentage of cache occupancy
system.l2.tags.occ_percent::.cpu.data        0.992892                       # Average percentage of cache occupancy
system.l2.tags.occ_percent::total            0.993299                       # Average percentage of cache occupancy
system.l2.tags.occ_task_id_blocks::1024          8192                       # Occupied blocks per task id
system.l2.tags.age_task_id_blocks_1024::0           76                       # Occupied blocks per task id
system.l2.tags.age_task_id_blocks_1024::1          679                       # Occupied blocks per task id
system.l2.tags.age_task_id_blocks_1024::2         6781                       # Occupied blocks per task id
system.l2.tags.age_task_id_blocks_1024::3          656                       # Occupied blocks per task id
system.l2.tags.occ_task_id_percent::1024            1                       # Percentage of cache occupancy per task id
system.l2.tags.tag_accesses                  26329311                       # Number of tag accesses
system.l2.tags.data_accesses                 26329311                       # Number of data accesses
system.l2.tags.power_state.pwrStateResidencyTicks::UNDEFINED 705605295000                       # Cumulative time (in ticks) in various power states
system.mem_ctrls.avgPriority_.writebacks::samples   5254829.00                       # Average QoS priority value for accepted requests
system.mem_ctrls.avgPriority_.cpu.inst::samples       569.00                       # Average QoS priority value for accepted requests
system.mem_ctrls.avgPriority_.cpu.data::samples   5263261.00                       # Average QoS priority value for accepted requests
system.mem_ctrls.priorityMinLatency      0.000000018750                       # per QoS priority minimum request to response latency (s)
system.mem_ctrls.priorityMaxLatency      0.000497642250                       # per QoS priority maximum request to response latency (s)
system.mem_ctrls.numReadWriteTurnArounds       327947                       # Number of turnarounds from READ to WRITE
system.mem_ctrls.numWriteReadTurnArounds       327947                       # Number of turnarounds from WRITE to READ
system.mem_ctrls.numStayReadState            15633351                       # Number of times bus staying in READ state
system.mem_ctrls.numStayWriteState            4926899                       # Number of times bus staying in WRITE state
system.mem_ctrls.readReqs                     5263830                       # Number of read requests accepted
system.mem_ctrls.writeReqs                    5254829                       # Number of write requests accepted
system.mem_ctrls.readBursts                   5263830                       # Number of controller read bursts, including those serviced by the write queue
system.mem_ctrls.writeBursts                  5254829                       # Number of controller write bursts, including those merged in the write queue
system.mem_ctrls.servicedByWrQ                      0                       # Number of controller read bursts serviced by the write queue
system.mem_ctrls.mergedWrBursts                     0                       # Number of controller write bursts merged with an existing one
system.mem_ctrls.neitherReadNorWriteReqs            0                       # Number of requests that are neither read nor write
system.mem_ctrls.avgRdQLen                       1.00                       # Average read queue length when enqueuing
system.mem_ctrls.avgWrQLen                      25.55                       # Average write queue length when enqueuing
system.mem_ctrls.numRdRetry                         0                       # Number of times read queue was full causing retry
system.mem_ctrls.numWrRetry                         0                       # Number of times write queue was full causing retry
system.mem_ctrls.readPktSize::0                     0                       # Read request sizes (log2)
system.mem_ctrls.readPktSize::1                     0                       # Read request sizes (log2)
system.mem_ctrls.readPktSize::2                     0                       # Read request sizes (log2)
system.mem_ctrls.readPktSize::3                     0                       # Read request sizes (log2)
system.mem_ctrls.readPktSize::4                     0                       # Read request sizes (log2)
system.mem_ctrls.readPktSize::5                     0                       # Read request sizes (log2)
system.mem_ctrls.readPktSize::6               5263830                       # Read request sizes (log2)
[...]
system.mem_ctrls.dram.bw_write::.writebacks    476624904                       # Write bandwidth from this memory (bytes/s)
system.mem_ctrls.dram.bw_write::total       476624904                       # Write bandwidth from this memory (bytes/s)
system.mem_ctrls.dram.bw_total::.writebacks    476624904                       # Total bandwidth to/from this memory (bytes/s)
system.mem_ctrls.dram.bw_total::.cpu.inst        51610                       # Total bandwidth to/from this memory (bytes/s)
system.mem_ctrls.dram.bw_total::.cpu.data    477389706                       # Total bandwidth to/from this memory (bytes/s)
system.mem_ctrls.dram.bw_total::total       954066219                       # Total bandwidth to/from this memory (bytes/s)
system.mem_ctrls.dram.readBursts              5263830                       # Number of DRAM read bursts
system.mem_ctrls.dram.writeBursts             5254808                       # Number of DRAM write bursts
system.mem_ctrls.dram.perBankRdBursts::0       329235                       # Per bank write bursts
system.mem_ctrls.dram.perBankRdBursts::1       329023                       # Per bank write bursts
system.mem_ctrls.dram.perBankRdBursts::2       329070                       # Per bank write bursts
system.mem_ctrls.dram.perBankRdBursts::3       329044                       # Per bank write bursts
system.mem_ctrls.dram.perBankRdBursts::4       329101                       # Per bank write bursts
system.mem_ctrls.dram.perBankRdBursts::5       328945                       # Per bank write bursts
system.mem_ctrls.dram.perBankRdBursts::6       328902                       # Per bank write bursts
system.mem_ctrls.dram.perBankRdBursts::7       328861                       # Per bank write bursts
system.mem_ctrls.dram.perBankRdBursts::8       328869                       # Per bank write bursts
system.mem_ctrls.dram.perBankRdBursts::9       328968                       # Per bank write bursts
system.mem_ctrls.dram.perBankRdBursts::10       329028                       # Per bank write bursts
system.mem_ctrls.dram.perBankRdBursts::11       328958                       # Per bank write bursts
system.mem_ctrls.dram.perBankRdBursts::12       328970                       # Per bank write bursts
system.mem_ctrls.dram.perBankRdBursts::13       328795                       # Per bank write bursts
system.mem_ctrls.dram.perBankRdBursts::14       328976                       # Per bank write bursts
system.mem_ctrls.dram.perBankRdBursts::15       329085                       # Per bank write bursts
system.mem_ctrls.dram.perBankWrBursts::0       328627                       # Per bank write bursts
system.mem_ctrls.dram.perBankWrBursts::1       328455                       # Per bank write bursts
system.mem_ctrls.dram.perBankWrBursts::2       328498                       # Per bank write bursts
system.mem_ctrls.dram.perBankWrBursts::3       328500                       # Per bank write bursts
system.mem_ctrls.dram.perBankWrBursts::4       328511                       # Per bank write bursts
system.mem_ctrls.dram.perBankWrBursts::5       328404                       # Per bank write bursts
system.mem_ctrls.dram.perBankWrBursts::6       328320                       # Per bank write bursts
system.mem_ctrls.dram.perBankWrBursts::7       328320                       # Per bank write bursts
system.mem_ctrls.dram.perBankWrBursts::8       328320                       # Per bank write bursts
system.mem_ctrls.dram.perBankWrBursts::9       328383                       # Per bank write bursts
system.mem_ctrls.dram.perBankWrBursts::10       328457                       # Per bank write bursts
system.mem_ctrls.dram.perBankWrBursts::11       328438                       # Per bank write bursts
system.mem_ctrls.dram.perBankWrBursts::12       328444                       # Per bank write bursts
system.mem_ctrls.dram.perBankWrBursts::13       328258                       # Per bank write bursts
system.mem_ctrls.dram.perBankWrBursts::14       328381                       # Per bank write bursts
system.mem_ctrls.dram.perBankWrBursts::15       328492                       # Per bank write bursts
system.mem_ctrls.dram.totQLat             52138403750                       # Total ticks spent queuing
system.mem_ctrls.dram.totBusLat           26319150000                       # Total ticks spent in databus transfers
system.mem_ctrls.dram.totMemAccLat       150835216250                       # Total ticks spent from burst creation until serviced by the DRAM
system.mem_ctrls.dram.avgQLat                 9905.03                       # Average queueing delay per DRAM burst
system.mem_ctrls.dram.avgBusLat               5000.00                       # Average bus latency per DRAM burst
system.mem_ctrls.dram.avgMemAccLat           28655.03                       # Average memory access latency per DRAM burst
system.mem_ctrls.dram.readRowHits             4810700                       # Number of row buffer hits during reads
system.mem_ctrls.dram.writeRowHits            4894369                       # Number of row buffer hits during writes
system.mem_ctrls.dram.readRowHitRate            91.39                       # Row buffer hit rate for reads
system.mem_ctrls.dram.writeRowHitRate           93.14                       # Row buffer hit rate for writes
system.mem_ctrls.dram.bytesPerActivate::samples       813568                       # Bytes accessed per row activation
system.mem_ctrls.dram.bytesPerActivate::mean   827.457048                       # Bytes accessed per row activation
system.mem_ctrls.dram.bytesPerActivate::gmean   708.672646                       # Bytes accessed per row activation
system.mem_ctrls.dram.bytesPerActivate::stdev   309.954731                       # Bytes accessed per row activation
system.mem_ctrls.dram.bytesPerActivate::0-127        36112      4.44%      4.44% # Bytes accessed per row activation
system.mem_ctrls.dram.bytesPerActivate::128-255        24421      3.00%      7.44% # Bytes accessed per row activation
system.mem_ctrls.dram.bytesPerActivate::256-383        45233      5.56%     13.00% # Bytes accessed per row activation
system.mem_ctrls.dram.bytesPerActivate::384-511        42272      5.20%     18.20% # Bytes accessed per row activation
system.mem_ctrls.dram.bytesPerActivate::512-639        40561      4.99%     23.18% # Bytes accessed per row activation
system.mem_ctrls.dram.bytesPerActivate::640-767        38096      4.68%     27.86% # Bytes accessed per row activation
system.mem_ctrls.dram.bytesPerActivate::768-895        32360      3.98%     31.84% # Bytes accessed per row activation
system.mem_ctrls.dram.bytesPerActivate::896-1023        40472      4.97%     36.82% # Bytes accessed per row activation
system.mem_ctrls.dram.bytesPerActivate::1024-1151       514041     63.18%    100.00% # Bytes accessed per row activation
system.mem_ctrls.dram.bytesPerActivate::total       813568                       # Bytes accessed per row activation
system.mem_ctrls.dram.bytesRead             336885120                       # Total number of bytes read from DRAM
system.mem_ctrls.dram.bytesWritten          336307712                       # Total number of bytes written to DRAM
system.mem_ctrls.dram.avgRdBW              477.441315                       # Average DRAM read bandwidth in MiBytes/s
system.mem_ctrls.dram.avgWrBW              476.622999                       # Average DRAM write bandwidth in MiBytes/s
system.mem_ctrls.dram.peakBW                 12800.00                       # Theoretical peak bandwidth in MiByte/s
system.mem_ctrls.dram.busUtil                    7.45                       # Data bus utilization in percentage
system.mem_ctrls.dram.busUtilRead                3.73                       # Data bus utilization in percentage for reads
system.mem_ctrls.dram.busUtilWrite               3.72                       # Data bus utilization in percentage for writes
system.mem_ctrls.dram.pageHitRate               92.27                       # Row buffer hit rate, read and write combined
system.mem_ctrls.dram.power_state.pwrStateResidencyTicks::UNDEFINED 705605295000                       # Cumulative time (in ticks) in various power states
system.mem_ctrls.dram.rank0.actEnergy      2905373100                       # Energy for activate commands per rank (pJ)
system.mem_ctrls.dram.rank0.preEnergy      1544238630                       # Energy for precharge commands per rank (pJ)
system.mem_ctrls.dram.rank0.readEnergy    18793772340                       # Energy for read commands per rank (pJ)
system.mem_ctrls.dram.rank0.writeEnergy   13716254700                       # Energy for write commands per rank (pJ)
system.mem_ctrls.dram.rank0.refreshEnergy 55699291440.000008                       # Energy for refresh commands per rank (pJ)
system.mem_ctrls.dram.rank0.actBackEnergy 165081517290                       # Energy for active background per rank (pJ)
system.mem_ctrls.dram.rank0.preBackEnergy 131936418720                       # Energy for precharge background per rank (pJ)
system.mem_ctrls.dram.rank0.actPowerDownEnergy            0                       # Energy for active power-down per rank (pJ)
system.mem_ctrls.dram.rank0.prePowerDownEnergy            0                       # Energy for precharge power-down per rank (pJ)
system.mem_ctrls.dram.rank0.selfRefreshEnergy            0                       # Energy for self refresh per rank (pJ)
system.mem_ctrls.dram.rank0.totalEnergy  389676866220                       # Total energy per rank (pJ)
system.mem_ctrls.dram.rank0.averagePower   552.258988                       # Core power per rank (mW)
system.mem_ctrls.dram.rank0.totalIdleTime            0                       # Total Idle time Per DRAM Rank
system.mem_ctrls.dram.rank0.pwrStateTime::IDLE 338353246000                       # Time in different power states
system.mem_ctrls.dram.rank0.pwrStateTime::REF  23561460000                       # Time in different power states
system.mem_ctrls.dram.rank0.pwrStateTime::SREF            0                       # Time in different power states
system.mem_ctrls.dram.rank0.pwrStateTime::PRE_PDN            0                       # Time in different power states
system.mem_ctrls.dram.rank0.pwrStateTime::ACT 343690589000                       # Time in different power states
system.mem_ctrls.dram.rank0.pwrStateTime::ACT_PDN            0                       # Time in different power states
system.mem_ctrls.dram.rank1.actEnergy      2903509560                       # Energy for activate commands per rank (pJ)
system.mem_ctrls.dram.rank1.preEnergy      1543251930                       # Energy for precharge commands per rank (pJ)
system.mem_ctrls.dram.rank1.readEnergy    18789973860                       # Energy for read commands per rank (pJ)
system.mem_ctrls.dram.rank1.writeEnergy   13713843060                       # Energy for write commands per rank (pJ)
system.mem_ctrls.dram.rank1.refreshEnergy 55699291440.000008                       # Energy for refresh commands per rank (pJ)
system.mem_ctrls.dram.rank1.actBackEnergy 164980875240                       # Energy for active background per rank (pJ)
system.mem_ctrls.dram.rank1.preBackEnergy 132021169920                       # Energy for precharge background per rank (pJ)
system.mem_ctrls.dram.rank1.actPowerDownEnergy            0                       # Energy for active power-down per rank (pJ)
system.mem_ctrls.dram.rank1.prePowerDownEnergy            0                       # Energy for precharge power-down per rank (pJ)
system.mem_ctrls.dram.rank1.selfRefreshEnergy            0                       # Energy for self refresh per rank (pJ)
system.mem_ctrls.dram.rank1.totalEnergy  389651915010                       # Total energy per rank (pJ)
system.mem_ctrls.dram.rank1.averagePower   552.223627                       # Core power per rank (mW)
system.mem_ctrls.dram.rank1.totalIdleTime            0                       # Total Idle time Per DRAM Rank
system.mem_ctrls.dram.rank1.pwrStateTime::IDLE 338574785000                       # Time in different power states
system.mem_ctrls.dram.rank1.pwrStateTime::REF  23561460000                       # Time in different power states
system.mem_ctrls.dram.rank1.pwrStateTime::SREF            0                       # Time in different power states
system.mem_ctrls.dram.rank1.pwrStateTime::PRE_PDN            0                       # Time in different power states
system.mem_ctrls.dram.rank1.pwrStateTime::ACT 343469050000                       # Time in different power states
system.mem_ctrls.dram.rank1.pwrStateTime::ACT_PDN            0                       # Time in different power states
system.mem_ctrls.power_state.pwrStateResidencyTicks::UNDEFINED 705605295000                       # Cumulative time (in ticks) in various power states
system.membus.trans_dist::ReadResp                840                       # Transaction distribution
system.membus.trans_dist::WritebackDirty      5254829                       # Transaction distribution
system.membus.trans_dist::CleanEvict              229                       # Transaction distribution
system.membus.trans_dist::ReadExReq           5262990                       # Transaction distribution
system.membus.trans_dist::ReadExResp          5262990                       # Transaction distribution
system.membus.trans_dist::ReadSharedReq           840                       # Transaction distribution
system.membus.pkt_count_system.l2.mem_side_port::system.mem_ctrls.port     15782718                       # Packet count per connected requestor and responder (bytes)
system.membus.pkt_count::total               15782718                       # Packet count per connected requestor and responder (bytes)
system.membus.pkt_size_system.l2.mem_side_port::system.mem_ctrls.port    673194176                       # Cumulative packet size per connected requestor and responder (bytes)
system.membus.pkt_size::total               673194176                       # Cumulative packet size per connected requestor and responder (bytes)
system.membus.snoops                                0                       # Total snoops (count)
system.membus.snoopTraffic                          0                       # Total snoop traffic (bytes)
system.membus.snoop_fanout::samples           5263830                       # Request fanout histogram
system.membus.snoop_fanout::mean                    0                       # Request fanout histogram
system.membus.snoop_fanout::stdev                   0                       # Request fanout histogram
system.membus.snoop_fanout::underflows              0      0.00%      0.00% # Request fanout histogram
system.membus.snoop_fanout::0                 5263830    100.00%    100.00% # Request fanout histogram
system.membus.snoop_fanout::1                       0      0.00%    100.00% # Request fanout histogram
system.membus.snoop_fanout::overflows               0      0.00%    100.00% # Request fanout histogram
system.membus.snoop_fanout::min_value               0                       # Request fanout histogram
system.membus.snoop_fanout::max_value               0                       # Request fanout histogram
system.membus.snoop_fanout::total             5263830                       # Request fanout histogram
system.membus.power_state.pwrStateResidencyTicks::UNDEFINED 705605295000                       # Cumulative time (in ticks) in various power states
system.membus.reqLayer0.occupancy         31538204000                       # Layer occupancy (ticks)
system.membus.reqLayer0.utilization               4.5                       # Layer utilization (%)
system.membus.respLayer1.occupancy        27700009250                       # Layer occupancy (ticks)
system.membus.respLayer1.utilization              3.9                       # Layer utilization (%)
system.tol2bus.trans_dist::ReadResp              2736                       # Transaction distribution
system.tol2bus.trans_dist::WritebackDirty     10518750                       # Transaction distribution
system.tol2bus.trans_dist::WritebackClean           31                       # Transaction distribution
system.tol2bus.trans_dist::CleanEvict            2626                       # Transaction distribution
system.tol2bus.trans_dist::ReadExReq          5264615                       # Transaction distribution
system.tol2bus.trans_dist::ReadExResp         5264615                       # Transaction distribution
system.tol2bus.trans_dist::ReadCleanReq           600                       # Transaction distribution
system.tol2bus.trans_dist::ReadSharedReq         2136                       # Transaction distribution
system.tol2bus.pkt_count_system.cpu.icache.mem_side_port::system.l2.cpu_side_port         1231                       # Packet count per connected requestor and responder (bytes)
system.tol2bus.pkt_count_system.cpu.dcache.mem_side_port::system.l2.cpu_side_port     15799229                       # Packet count per connected requestor and responder (bytes)
system.tol2bus.pkt_count::total              15800460                       # Packet count per connected requestor and responder (bytes)
system.tol2bus.pkt_size_system.cpu.icache.mem_side_port::system.l2.cpu_side_port        40384                       # Cumulative packet size per connected requestor and responder (bytes)
system.tol2bus.pkt_size_system.cpu.dcache.mem_side_port::system.l2.cpu_side_port    673963008                       # Cumulative packet size per connected requestor and responder (bytes)
system.tol2bus.pkt_size::total              674003392                       # Cumulative packet size per connected requestor and responder (bytes)
system.tol2bus.snoops                         5255649                       # Total snoops (count)
system.tol2bus.snoopTraffic                 336309056                       # Total snoop traffic (bytes)
system.tol2bus.snoop_fanout::samples         10523000                       # Request fanout histogram
system.tol2bus.snoop_fanout::mean            0.000092                       # Request fanout histogram
system.tol2bus.snoop_fanout::stdev           0.009576                       # Request fanout histogram
system.tol2bus.snoop_fanout::underflows             0      0.00%      0.00% # Request fanout histogram
system.tol2bus.snoop_fanout::0               10522035     99.99%     99.99% # Request fanout histogram
system.tol2bus.snoop_fanout::1                    965      0.01%    100.00% # Request fanout histogram
system.tol2bus.snoop_fanout::2                      0      0.00%    100.00% # Request fanout histogram
system.tol2bus.snoop_fanout::overflows              0      0.00%    100.00% # Request fanout histogram
system.tol2bus.snoop_fanout::min_value              0                       # Request fanout histogram
system.tol2bus.snoop_fanout::max_value              1                       # Request fanout histogram
system.tol2bus.snoop_fanout::total           10523000                       # Request fanout histogram
system.tol2bus.power_state.pwrStateResidencyTicks::UNDEFINED 705605295000                       # Cumulative time (in ticks) in various power states
system.tol2bus.reqLayer0.occupancy        21061013000                       # Layer occupancy (ticks)
system.tol2bus.reqLayer0.utilization              3.0                       # Layer utilization (%)
system.tol2bus.respLayer0.occupancy           1800999                       # Layer occupancy (ticks)
system.tol2bus.respLayer0.utilization             0.0                       # Layer utilization (%)
system.tol2bus.respLayer1.occupancy       15800256996                       # Layer occupancy (ticks)
system.tol2bus.respLayer1.utilization             2.2                       # Layer utilization (%)
system.voltage_domain.voltage                       1                       # Voltage in Volts

---------- End Simulation Statistics   ----------
